*SPEF "IEEE 1481-1998"
*DESIGN "dvsd_pe"
*DATE "Thu Aug 19 11:55:17 2021"
*VENDOR "AUC CSCE Department"
*PROGRAM "SPEF Extractor"
*VERSION "1.0"
*DESIGN_FLOW "PIN_CAP NONE"
*DIVIDER /
*DELIMITER :
*BUS_DELIMITER []
*T_UNIT 1.00000 NS
*C_UNIT 1.00000 PF
*R_UNIT 1.00000 OHM
*L_UNIT 1.00000 HENRY


*NAME_MAP
*0 _00_
*1 _01_
*2 _02_
*3 _03_
*4 _04_
*5 _05_
*6 _06_
*7 _07_
*8 _08_
*9 _09_
*10 _10_
*11 _11_
*12 _12_
*13 _13_
*14 _14_
*15 _15_
*16 _16_
*17 _17_
*18 _18_
*19 _19_
*20 _20_
*21 _21_
*22 _22_
*23 _23_
*24 _24_
*25 _25_
*26 _26_
*27 _27_
*28 en
*29 eno
*30 gs
*31 in[0]
*32 in[1]
*33 in[2]
*34 in[3]
*35 in[4]
*36 in[5]
*37 in[6]
*38 in[7]
*39 net1
*40 net10
*41 net11
*42 net12
*43 net13
*44 net14
*45 net2
*46 net3
*47 net4
*48 net5
*49 net6
*50 net7
*51 net8
*52 net9
*53 out[0]
*54 out[1]
*55 out[2]

*D_NET *0 0.0023615394021400003
*CONN
*I _60_:GATE_N I
*I _59_:GATE_N I
*I _58_:GATE_N I
*I _48_:Y O
*CAP
0 *0:1 0.00028423114272
1 *0:2 0.00045999736993999993
2 *0:4 0.00021664874422
3 *0:6 0.0005960852944
4 *0:3 1.1351419220000001e-05
5 *0:8 4.017137184e-05
6 *0:9 0.00055710352544
7 *0:5 0.00019595053436
8 _60_:GATE_N 0
9 _59_:GATE_N 0
10 _48_:Y 0
11 _58_:GATE_N 0
*RES
0 *0:1 _60_:GATE_N 2.875
1 *0:2 *0:3 5.1517857142857135
2 *0:4 *0:5 1.8303571428571426
3 *0:4 *0:3 0.4107142857142857
4 *0:6 _48_:Y 6.160714285714286
5 *0:3 *0:7 0.008928571428571428
6 *0:8 _58_:GATE_N 0.30357142857142855
7 *0:9 *0:8 5.75
8 *0:5 *0:10 2.1249999999999996
9 *0:1 *0:2 0
10 _60_:GATE_N _60_:GATE_N 0
11 _59_:GATE_N _59_:GATE_N 0
12 _59_:GATE_N *0:5 0
13 _48_:Y _48_:Y 0
14 *0:6 *0:7 0
15 _58_:GATE_N _58_:GATE_N 0
16 *0:9 *0:10 0
*END

*D_NET *1 0.002065527676
*CONN
*I _51_:A1 I
*I _50_:D_N I
*I _46_:A I
*I _35_:A1_N I
*I _34_:A I
*I _28_:X O
*CAP
12 *1:1 0.00012949366976
13 *1:2 6.898398368e-05
14 *1:3 0.0002062676048
15 _46_:A 0.0002062676048
16 *1:5 4.017137184e-05
17 *1:6 0.0002062676048
18 _28_:X 4.017137184e-05
19 *1:7 0.00022243310784000002
20 *1:9 6.898398368e-05
21 *1:10 0.0005481239712
22 *1:11 0.00032836340175999997
23 _34_:A 0
24 *1:4 0
25 _35_:A1_N 0
26 *1:14 0
27 _50_:D_N 0
28 _51_:A1 0
29 *1:15 0
*RES
17 *1:1 _34_:A 0.30357142857142855
18 *1:1 *1:2 0.8214285714285714
19 *1:2 *1:3 0.6071428571428571
20 *1:3 *1:4 2.0535714285714284
21 _46_:A *1:5 2.0535714285714284
22 *1:5 *1:6 0.30357142857142855
23 *1:6 _28_:X 2.0535714285714284
24 _28_:X _28_:X 0.30357142857142855
25 *1:7 *1:8 2.4285714285714284
26 *1:9 _50_:D_N 0.6071428571428571
27 *1:10 *1:9 4.928571428571428
28 *1:10 _51_:A1 0.6071428571428571
29 *1:11 *1:12 3.642857142857143
30 _28_:X _28_:X 0
31 _28_:X *1:11 0
32 _34_:A _34_:A 0
33 *1:4 *1:13 0
34 _46_:A _46_:A 0
35 _35_:A1_N _35_:A1_N 0
36 _35_:A1_N *1:7 0
37 *1:14 *1:8 0
38 _50_:D_N _50_:D_N 0
39 _51_:A1 _51_:A1 0
40 *1:15 *1:12 0
*END

*D_NET *2 0.00241119811968
*CONN
*I _51_:A2 I
*I _50_:C I
*I _46_:B I
*I _35_:A2_N I
*I _34_:B I
*I _29_:X O
*CAP
30 _35_:A2_N 0.00024524937376
31 *2:2 0.00056670656308
32 _29_:X 8.932229792e-05
33 _46_:B 0.00024524937376
34 *2:3 0.00016946796088000002
35 *2:7 0.00016728583584
36 *2:8 0.00011650281392
37 _51_:A2 5.034052896000001e-05
38 _34_:B 0.0002062676048
39 *2:12 0.00012974410066
40 *2:14 4.640188412000001e-05
41 *2:15 2.3813806740000006e-05
42 *2:16 0.00035484597524
43 *2:1 0
44 *2:4 0
45 *2:5 0
46 *2:17 0
47 *2:10 0
48 *2:11 0
49 _50_:C 0
*RES
41 _35_:A2_N *2:1 2.464285714285714
42 *2:2 *2:3 6.374999999999999
43 _29_:X *2:4 0.8214285714285714
44 _46_:B *2:5 2.464285714285714
45 *2:3 *2:6 1.8214285714285714
46 *2:7 _34_:B 1.6428571428571428
47 *2:8 *2:9 1.2142857142857142
48 _51_:A2 *2:10 0.4107142857142857
49 _34_:B *2:11 2.0535714285714284
50 *2:12 *2:13 1.3660714285714284
51 *2:14 *2:12 0.4107142857142857
52 *2:15 *2:14 0.15178571428571427
53 *2:16 *2:15 3.946428571428571
54 _35_:A2_N _35_:A2_N 0
55 *2:1 *2:3 0
56 *2:4 *2:2 0
57 _29_:X _29_:X 0
58 _46_:B _46_:B 0
59 *2:5 *2:6 0
60 *2:17 *2:16 0
61 _34_:B _34_:B 0
62 *2:7 *2:8 0
63 *2:10 *2:9 0
64 _51_:A2 _51_:A2 0
65 *2:11 *2:15 0
66 _50_:C _50_:C 0
67 _50_:C *2:13 0
*END

*D_NET *3 0.00093585662356
*CONN
*I _51_:A3 I
*I _33_:A1 I
*I _30_:Y O
*CAP
50 *3:1 0.00012830406688
51 *3:2 0.00035484597524
52 _51_:A3 8.932229792e-05
53 *3:5 4.017137184e-05
54 *3:6 0.00032321291168
55 _30_:Y 0
56 *3:4 0
57 _33_:A1 0
*RES
68 *3:1 _30_:Y 1.232142857142857
69 *3:2 *3:3 3.946428571428571
70 _51_:A3 *3:4 0.8214285714285714
71 *3:5 _33_:A1 0.30357142857142855
72 *3:6 *3:5 3.2857142857142856
73 _30_:Y _30_:Y 0
74 *3:1 *3:3 0
75 *3:4 *3:2 0
76 _51_:A3 _51_:A3 0
77 _33_:A1 _33_:A1 0
78 *3:6 *3:7 0
*END

*D_NET *4 0.0021503252791999997
*CONN
*I _51_:A4 I
*I _50_:B I
*I _46_:D I
*I _36_:B I
*I _33_:A2 I
*I _31_:X O
*CAP
58 *4:1 0.00016728583584
59 *4:2 5.034052896000001e-05
60 *4:3 0.0005402239896
61 _33_:A2 0.00024524937376
62 *4:5 0.00032836340175999997
63 *4:7 0.00032321291168
64 _51_:A4 0.00016728583584
65 *4:4 0.00032836340175999997
66 _46_:D 0
67 _36_:B 0
68 _31_:X 0
69 _50_:B 0
70 *4:9 0
*RES
79 *4:1 _46_:D 1.6428571428571428
80 *4:2 _36_:B 0.4107142857142857
81 *4:3 *4:4 6.07142857142857
82 _33_:A2 _31_:X 2.464285714285714
83 *4:5 *4:6 3.642857142857143
84 *4:7 _50_:B 3.2857142857142856
85 _51_:A4 *4:7 1.6428571428571428
86 *4:4 *4:8 3.642857142857143
87 _46_:D _46_:D 0
88 *4:1 *4:4 0
89 _36_:B _36_:B 0
90 *4:2 *4:3 0
91 _33_:A2 _33_:A2 0
92 _31_:X _31_:X 0
93 _50_:B _50_:B 0
94 _50_:B *4:5 0
95 *4:9 *4:6 0
96 *4:7 *4:8 0
97 _51_:A4 _51_:A4 0
*END

*D_NET *5 0.00059712698396
*CONN
*I _33_:B2 I
*I _32_:Y O
*CAP
71 *5:1 0.00019595053436
72 _32_:Y 0.00040117644959999997
73 _33_:B2 0
74 *5:3 0
*RES
98 *5:1 *5:2 2.1249999999999996
99 _32_:Y *5:3 4.107142857142857
100 _33_:B2 _33_:B2 0
101 _33_:B2 *5:1 0
102 *5:3 *5:2 0
103 _32_:Y _32_:Y 0
*END

*D_NET *6 0.0005646332212799999
*CONN
*I _34_:C I
*I _33_:X O
*CAP
75 *6:1 0.00016728583584
76 *6:3 0.00032836340175999997
77 _34_:C 6.898398368e-05
78 _33_:X 0
*RES
104 *6:1 *6:2 1.6428571428571428
105 *6:3 *6:4 3.642857142857143
106 _34_:C *6:2 0.6071428571428571
107 _34_:C _34_:C 0
108 *6:1 *6:3 0
109 _33_:X _33_:X 0
110 _33_:X *6:4 0
*END

*D_NET *7 0.00087089438992
*CONN
*I _56_:A2 I
*I _40_:A1 I
*I _34_:X O
*CAP
79 *7:1 0.00011650281392
80 *7:3 0.0003621946806399999
81 _56_:A2 6.898398368e-05
82 *7:4 0.00032321291168
83 _40_:A1 0
84 _34_:X 0
*RES
111 *7:1 *7:2 1.2142857142857142
112 *7:3 _34_:X 3.6964285714285707
113 _56_:A2 *7:4 0.6071428571428571
114 *7:4 _40_:A1 3.2857142857142856
115 _40_:A1 _40_:A1 0
116 _40_:A1 *7:1 0
117 *7:3 *7:2 0
118 _34_:X _34_:X 0
119 _56_:A2 _56_:A2 0
*END

*D_NET *8 0.00023230768531999998
*CONN
*I _36_:C I
*I _35_:X O
*CAP
85 *8:1 8.932229792e-05
86 *8:2 0.00014298538739999998
87 _36_:C 0
88 _35_:X 0
*RES
120 *8:1 _36_:C 0.8214285714285714
121 *8:2 *8:3 1.5178571428571426
122 _36_:C _36_:C 0
123 *8:1 *8:2 0
124 _35_:X _35_:X 0
125 _35_:X *8:3 0
*END

*D_NET *9 0.00062657792248
*CONN
*I _40_:A2 I
*I _36_:X O
*CAP
89 *9:1 0.00024524937376
90 *9:2 0.00038132854871999994
91 _36_:X 0
92 _40_:A2 0
*RES
126 *9:1 _36_:X 2.464285714285714
127 *9:2 *9:3 4.249999999999999
128 _36_:X _36_:X 0
129 *9:1 *9:2 0
130 _40_:A2 _40_:A2 0
131 _40_:A2 *9:3 0
*END

*D_NET *10 0.0019190354566800002
*CONN
*I _54_:A1 I
*I _53_:C_N I
*I _45_:B1 I
*I _42_:A1_N I
*I _39_:A I
*I _37_:X O
*CAP
93 _45_:B1 0.0003621946806399999
94 _54_:A1 0.00012830406688
95 *10:2 0.00022243310784000002
96 _39_:A 8.932229792e-05
97 _53_:C_N 8.932229792e-05
98 *10:6 0.00024891568132000004
99 *10:7 0.00028423114272
100 *10:8 0.00049431218144
101 *10:1 0
102 *10:4 0
103 *10:5 0
104 _37_:X 0
105 _42_:A1_N 0
*RES
132 _45_:B1 _39_:A 3.6964285714285707
133 _54_:A1 *10:1 1.232142857142857
134 *10:2 *10:3 2.4285714285714284
135 _39_:A *10:4 0.8214285714285714
136 _53_:C_N *10:5 0.8214285714285714
137 *10:6 *10:2 2.7321428571428568
138 *10:7 _37_:X 2.875
139 *10:8 _42_:A1_N 4.66517857142857
140 *10:8 *10:4 0.30357142857142855
141 _39_:A _39_:A 0
142 _45_:B1 _45_:B1 0
143 _54_:A1 _54_:A1 0
144 *10:1 *10:2 0
145 *10:4 *10:3 0
146 _53_:C_N _53_:C_N 0
147 *10:5 *10:6 0
148 _37_:X _37_:X 0
149 *10:7 *10:9 0
150 _42_:A1_N _42_:A1_N 0
*END

*D_NET *11 0.0017354827231600002
*CONN
*I _53_:A I
*I _44_:A I
*I _43_:A I
*I _39_:C I
*I _38_:X O
*CAP
106 _38_:X 0.0005181217564799999
107 *11:1 0.0002753982548
108 *11:3 0.00039456983545999995
109 *11:4 8.223124824000001e-05
110 *11:5 2.3813806740000006e-05
111 _44_:A 4.017137184e-05
112 *11:6 0.00040117644959999997
113 _43_:A 0
114 _39_:C 0
115 _53_:A 0
*RES
151 _38_:X _43_:A 5.339285714285714
152 *11:1 *11:2 3.035714285714285
153 *11:3 *11:4 4.4017857142857135
154 *11:4 *11:5 0.8214285714285714
155 *11:5 *11:1 0.15178571428571427
156 _44_:A *11:6 0.30357142857142855
157 *11:6 _53_:A 4.107142857142857
158 _43_:A _43_:A 0
159 _38_:X _38_:X 0
160 _39_:C _39_:C 0
161 _39_:C *11:1 0
162 _43_:A *11:2 0
163 _53_:A _53_:A 0
164 _53_:A *11:3 0
165 _44_:A _44_:A 0
*END

*D_NET *12 0.0011249009454800001
*CONN
*I _56_:A1 I
*I _55_:A1 I
*I _40_:B1 I
*I _39_:X O
*CAP
116 _40_:B1 8.932229792e-05
117 *12:2 4.017137184e-05
118 *12:3 0.00059318913656
119 _56_:A1 0.0002062676048
120 *12:5 0.00019595053436
121 _39_:X 0
122 _55_:A1 0
123 *12:7 0
*RES
166 _40_:B1 *12:1 0.8214285714285714
167 *12:2 *12:1 0.30357142857142855
168 *12:3 *12:4 6.678571428571428
169 _56_:A1 _40_:B1 2.0535714285714284
170 *12:5 *12:6 2.1249999999999996
171 _40_:B1 _40_:B1 0
172 *12:2 *12:4 0
173 _39_:X _39_:X 0
174 _39_:X *12:3 0
175 _56_:A1 _56_:A1 0
176 _55_:A1 _55_:A1 0
177 _55_:A1 *12:6 0
178 *12:7 *12:5 0
*END

*D_NET *13 0.0005884911767600001
*CONN
*I _42_:B2 I
*I _42_:A2_N I
*I _41_:Y O
*CAP
124 *13:1 5.034052896000001e-05
125 *13:2 0.00030188082828000006
126 *13:4 6.898398368e-05
127 _42_:A2_N 0.00016728583584
128 _41_:Y 0
129 _42_:B2 0
*RES
179 *13:1 _42_:A2_N 0.4107142857142857
180 *13:2 *13:3 3.339285714285714
181 *13:4 _42_:B2 0.6071428571428571
182 _42_:A2_N *13:4 1.6428571428571428
183 _42_:A2_N _42_:A2_N 0
184 *13:1 *13:3 0
185 _41_:Y _41_:Y 0
186 _41_:Y *13:2 0
187 _42_:B2 _42_:B2 0
*END

*D_NET *14 0.00060962617944
*CONN
*I _43_:B I
*I _42_:X O
*CAP
130 *14:1 0.00044015821855999997
131 *14:2 0.00016946796088000002
132 _42_:X 0
133 _43_:B 0
*RES
188 *14:1 _42_:X 4.517857142857142
189 *14:2 *14:3 1.8214285714285714
190 _42_:X _42_:X 0
191 *14:1 *14:2 0
192 _43_:B _43_:B 0
193 _43_:B *14:3 0
*END

*D_NET *15 0.0009085878100800001
*CONN
*I _56_:B2 I
*I _47_:A1 I
*I _43_:X O
*CAP
134 _47_:A1 0.00040117644959999997
135 *15:2 9.002024044000002e-05
136 *15:4 0.00016847543872000001
137 *15:3 0.00024891568132000004
138 *15:1 0
139 _43_:X 0
140 _56_:B2 0
141 *15:5 0
*RES
194 _47_:A1 *15:1 4.107142857142857
195 *15:2 *15:3 0.9107142857142857
196 *15:4 _56_:B2 0.30357142857142855
197 *15:4 *15:5 1.232142857142857
198 *15:3 *15:6 2.7321428571428568
199 _47_:A1 _47_:A1 0
200 *15:1 *15:3 0
201 _43_:X _43_:X 0
202 _43_:X *15:2 0
203 _56_:B2 _56_:B2 0
204 *15:5 *15:6 0
*END

*D_NET *16 0.0004051865042
*CONN
*I _45_:D1 I
*I _44_:Y O
*CAP
142 *16:1 0.00035484597524
143 *16:3 5.034052896000001e-05
144 _44_:Y 0
145 _45_:D1 0
*RES
205 *16:1 *16:2 3.946428571428571
206 *16:3 _45_:D1 0.4107142857142857
207 _44_:Y _44_:Y 0
208 _44_:Y *16:1 0
209 *16:3 *16:2 0
210 _45_:D1 _45_:D1 0
*END

*D_NET *17 0.00035484597524
*CONN
*I _47_:A2 I
*I _45_:X O
*CAP
146 *17:1 0.00035484597524
147 _45_:X 0
148 _47_:A2 0
*RES
211 *17:1 *17:2 3.946428571428571
212 _45_:X _45_:X 0
213 _45_:X *17:1 0
214 _47_:A2 _47_:A2 0
215 _47_:A2 *17:2 0
*END

*D_NET *18 0.00138921198012
*CONN
*I _56_:B1 I
*I _55_:B1 I
*I _47_:B1 I
*I _46_:X O
*CAP
149 *18:1 0.00075320197312
150 *18:2 0.00022243310784000002
151 _56_:B1 5.034052896000001e-05
152 _47_:B1 0.00016728583584
153 *18:6 0.00019595053436
154 _46_:X 0
155 _55_:B1 0
156 *18:4 0
157 *18:5 0
*RES
216 *18:1 _56_:B1 0.30357142857142855
217 *18:1 _46_:X 7.3928571428571415
218 *18:2 *18:3 2.4285714285714284
219 _56_:B1 *18:4 0.4107142857142857
220 _47_:B1 *18:5 1.6428571428571428
221 *18:6 *18:2 2.1249999999999996
222 _56_:B1 _56_:B1 0
223 _46_:X _46_:X 0
224 _55_:B1 _55_:B1 0
225 _55_:B1 *18:3 0
226 *18:4 *18:2 0
227 _47_:B1 _47_:B1 0
228 *18:5 *18:6 0
*END

*D_NET *19 0.0009759788279999999
*CONN
*I _48_:A2 I
*I _47_:Y O
*CAP
158 *19:1 4.017137184e-05
159 *19:2 8.932229792e-05
160 *19:3 0.00032836340175999997
161 _47_:Y 0.0005181217564799999
162 _48_:A2 0
163 *19:5 0
*RES
229 *19:1 _48_:A2 0.30357142857142855
230 *19:2 *19:1 0.8214285714285714
231 *19:3 *19:4 3.642857142857143
232 _47_:Y *19:5 5.339285714285714
233 _48_:A2 _48_:A2 0
234 *19:2 *19:4 0
235 *19:5 *19:3 0
236 _47_:Y _47_:Y 0
*END

*D_NET *20 0.00048151919328
*CONN
*I _51_:B1 I
*I _50_:X O
*CAP
164 _51_:B1 4.017137184e-05
165 *20:1 0.00040117644959999997
166 _50_:X 4.017137184e-05
*RES
237 _51_:B1 *20:1 0.30357142857142855
238 *20:1 _50_:X 4.107142857142857
239 _50_:X _50_:X 0.30357142857142855
240 _51_:B1 _51_:B1 0
241 _50_:X _50_:X 0
*END

*D_NET *21 0.00043857529012
*CONN
*I _55_:A2 I
*I _51_:X O
*CAP
167 _55_:A2 0.0002062676048
168 *21:2 8.932229792e-05
169 *21:3 0.00014298538739999998
170 *21:1 0
171 _51_:X 0
*RES
242 _55_:A2 *21:1 2.0535714285714284
243 *21:2 _51_:X 0.8214285714285714
244 *21:3 *21:4 1.5178571428571426
245 _55_:A2 _55_:A2 0
246 *21:1 *21:3 0
247 *21:2 *21:4 0
248 _51_:X _51_:X 0
*END

*D_NET *22 0.00054713020204
*CONN
*I _54_:A3 I
*I _52_:Y O
*CAP
172 *22:1 0.00024524937376
173 *22:2 0.00030188082828000006
174 _52_:Y 0
175 _54_:A3 0
*RES
249 *22:1 _52_:Y 2.464285714285714
250 *22:2 *22:3 3.339285714285714
251 _52_:Y _52_:Y 0
252 *22:1 *22:2 0
253 _54_:A3 _54_:A3 0
254 _54_:A3 *22:3 0
*END

*D_NET *23 0.00016946796088000002
*CONN
*I _54_:B1 I
*I _53_:X O
*CAP
176 *23:1 0.00016946796088000002
177 _53_:X 0
178 _54_:B1 0
*RES
255 *23:1 *23:2 1.8214285714285714
256 _53_:X _53_:X 0
257 _53_:X *23:1 0
258 _54_:B1 _54_:B1 0
259 _54_:B1 *23:2 0
*END

*D_NET *24 0.0012636438685200001
*CONN
*I _55_:B2 I
*I _54_:X O
*CAP
179 _54_:X 0.00016728583584
180 *24:2 0.0010963580326800002
181 *24:1 0
182 _55_:B2 0
*RES
260 _54_:X *24:1 1.6428571428571428
261 *24:2 *24:3 12.44642857142857
262 _54_:X _54_:X 0
263 *24:1 *24:2 0
264 _55_:B2 _55_:B2 0
265 _55_:B2 *24:3 0
*END

*D_NET *25 0.00049450880212
*CONN
*I _58_:D I
*I _55_:Y O
*CAP
183 *25:1 5.034052896000001e-05
184 *25:2 0.00035484597524
185 _55_:Y 8.932229792e-05
186 _58_:D 0
187 *25:4 0
*RES
266 *25:1 _58_:D 0.4107142857142857
267 *25:2 *25:3 3.946428571428571
268 _55_:Y *25:4 0.8214285714285714
269 _58_:D _58_:D 0
270 *25:1 *25:3 0
271 *25:4 *25:2 0
272 _55_:Y _55_:Y 0
*END

*D_NET *26 0.00063475921436
*CONN
*I _59_:D I
*I _56_:Y O
*CAP
188 _56_:Y 5.966225632e-05
189 _59_:D 0.00016728583584
190 *26:3 0.0004078111222
191 *26:1 0
192 *26:2 0
*RES
273 _56_:Y *26:1 0.5089285714285713
274 _59_:D *26:2 1.6428571428571428
275 *26:3 *26:4 4.553571428571428
276 *26:1 *26:3 0
277 _56_:Y _56_:Y 0
278 *26:2 *26:4 0
279 _59_:D _59_:D 0
*END

*D_NET *27 0.0008548591360000001
*CONN
*I _60_:D I
*I _48_:A1 I
*I _40_:Y O
*CAP
193 _40_:Y 0.00012576177760000002
194 *27:2 0.00014298538739999998
195 _60_:D 0.00028423114272
196 *27:5 0.00030188082828000006
197 *27:1 0
198 _48_:A1 0
199 *27:4 0
*RES
280 _40_:Y *27:1 1.2053571428571428
281 *27:2 *27:3 1.5178571428571426
282 _60_:D *27:4 2.875
283 *27:5 *27:2 3.339285714285714
284 _40_:Y _40_:Y 0
285 *27:1 *27:2 0
286 _48_:A1 _48_:A1 0
287 _48_:A1 *27:3 0
288 _60_:D _60_:D 0
289 *27:4 *27:5 0
*END

*D_NET *28 0.00094362671298
*CONN
*P en I
*I input1:A I
*CAP
200 *28:1 0.00065939557026
201 *28:3 0.00028423114272
202 input1:A 0
*RES
290 *28:1 *28:2 7.437499999999999
291 *28:3 input1:A 2.875
292 *28:3 *28:2 0
293 input1:A input1:A 0
*END

*D_NET *29 0.00069478135468
*CONN
*P eno O
*I output10:X O
*CAP
203 output10:X 0.00028423114272
204 *29:2 0.00012974410066
205 *29:4 0.00028080611129999996
206 *29:1 0
*RES
294 output10:X *29:1 2.875
295 *29:2 *29:3 1.3660714285714284
296 *29:4 *29:5 0.4684333333333334
297 output10:X output10:X 0
298 *29:1 *29:3 0
299 *29:2 *29:4 0
*END

*D_NET *30 0.0011120529842999999
*CONN
*P gs O
*I output11:X O
*CAP
207 *30:1 0.00063291299678
208 output11:X 0.0004791399875199999
209 *30:3 0
*RES
300 *30:1 *30:2 7.133928571428571
301 output11:X *30:3 4.928571428571428
302 *30:3 *30:2 0
303 output11:X output11:X 0
*END

*D_NET *31 0.00046290231888
*CONN
*P in[0] I
*I input2:A I
*CAP
210 *31:1 0.0003596407917
211 *31:3 0.00010326152718000001
212 input2:A 0
*RES
304 *31:1 *31:2 0.6125666666666667
305 *31:3 *31:4 1.0624999999999998
306 *31:3 *31:2 0
307 input2:A input2:A 0
308 input2:A *31:4 0
*END

*D_NET *32 0.0007542106271599999
*CONN
*P in[1] I
*I input3:A I
*CAP
213 *32:1 0.0003596407917
214 *32:3 0.00039456983545999995
215 input3:A 0
*RES
309 *32:1 *32:2 0.6125666666666667
310 *32:3 *32:4 4.4017857142857135
311 *32:3 *32:2 0
312 input3:A input3:A 0
313 input3:A *32:4 0
*END

*D_NET *33 0.00125548086466
*CONN
*P in[2] I
*I input4:A I
*CAP
216 *33:1 0.00065939557026
217 *33:3 0.0005960852944
218 input4:A 0
*RES
314 *33:1 *33:2 7.437499999999999
315 *33:3 input4:A 6.160714285714286
316 *33:3 *33:2 0
317 input4:A input4:A 0
*END

*D_NET *34 0.0015027291211000002
*CONN
*P in[3] I
*I input5:A I
*CAP
219 *34:1 0.00012830406688
220 *34:2 0.0013744250542200003
221 input5:A 0
*RES
318 *34:1 input5:A 1.232142857142857
319 *34:2 *34:3 15.633928571428571
320 *34:1 *34:2 0
321 input5:A input5:A 0
*END

*D_NET *35 0.0011592914960399999
*CONN
*P in[4] I
*I input6:A I
*CAP
222 *35:1 2.3813806740000006e-05
223 *35:3 0.00043847547209999995
224 *35:5 0.0006970022171999999
225 input6:A 0
*RES
322 *35:1 *35:2 0.15178571428571427
323 *35:3 *35:4 0.7567
324 *35:5 *35:4 0.31960000000000005
325 *35:5 *35:6 0.8648
326 input6:A input6:A 0
327 input6:A *35:2 0
328 *35:1 *35:3 0
*END

*D_NET *36 0.0036942388960200002
*CONN
*P in[5] I
*I input7:A I
*CAP
226 *36:1 0.0003621946806399999
227 *36:3 4.017137184e-05
228 *36:4 0.0009904277387600001
229 *36:6 0.00012830406688
230 *36:7 0.0011692424902800002
231 *36:9 0.00011806061236
232 *36:11 0.00010993955108000003
233 *36:12 6.353766696000002e-05
234 *36:14 0.0007123607172200001
235 input7:A 0
*RES
329 *36:1 *36:2 3.6964285714285707
330 *36:3 *36:2 0.30357142857142855
331 *36:4 *36:5 11.232142857142856
332 *36:6 input7:A 1.232142857142857
333 *36:7 *36:8 0.4107142857142857
334 *36:7 *36:9 12.749999999999998
335 *36:9 *36:10 1.232142857142857
336 *36:11 *36:10 0.6071428571428571
337 *36:11 *36:12 0.4107142857142857
338 *36:12 *36:13 0.6071428571428571
339 *36:14 *36:8 8.044642857142856
340 *36:1 *36:14 0
341 *36:3 *36:5 0
342 *36:6 *36:4 0
343 input7:A input7:A 0
*END

*D_NET *37 0.0034970081305399996
*CONN
*P in[6] I
*I input8:A I
*CAP
236 *37:1 0.0003621946806399999
237 *37:3 0.00102743768632
238 input8:A 0.0003621946806399999
239 *37:4 0.00174518108294
240 *37:2 0
*RES
344 *37:1 *37:2 3.6964285714285707
345 *37:3 *37:1 829.6
346 input8:A *37:3 3.6964285714285707
347 *37:4 *37:5 19.88392857142857
348 *37:2 *37:4 0
349 *37:1 *37:1 0
350 *37:3 *37:3 0
351 input8:A input8:A 0
*END

*D_NET *38 0.0011188465667
*CONN
*P in[7] I
*I input9:A I
*CAP
241 *38:1 0.00032836340175999997
242 *38:3 0.00066217909806
243 *38:5 0.00012830406688
244 input9:A 0
*RES
352 *38:1 *38:2 3.642857142857143
353 *38:3 *38:2 0.8214285714285714
354 *38:3 *38:4 6.5267857142857135
355 *38:5 input9:A 1.232142857142857
356 *38:5 *38:4 0
357 input9:A input9:A 0
*END

*D_NET *39 0.00272732403212
*CONN
*I input1:X O
*I _48_:B1 I
*I _49_:B I
*CAP
245 input1:X 0.00032321291168
246 *39:2 0.00165249207576
247 _48_:B1 0.00032321291168
248 *39:5 0.0002854207456
249 *39:7 0.00014298538739999998
250 *39:1 0
251 *39:4 0
252 _49_:B 0
253 *39:6 0
*RES
358 input1:X *39:1 3.2857142857142856
359 *39:2 *39:3 18.82142857142857
360 _48_:B1 *39:4 3.2857142857142856
361 *39:5 _49_:B 0.30357142857142855
362 *39:5 *39:6 2.464285714285714
363 *39:7 *39:8 1.5178571428571426
364 input1:X input1:X 0
365 *39:1 *39:2 0
366 *39:4 *39:3 0
367 _48_:B1 _48_:B1 0
368 _49_:B _49_:B 0
369 *39:6 *39:8 0
370 input1:X *39:7 0
*END

*D_NET *40 0.00460685560592
*CONN
*I output10:A I
*I _49_:Y O
*I _57_:A I
*CAP
254 _57_:A 0.0005181217564799999
255 _49_:Y 0.00110284829088
256 *40:2 6.898398368e-05
257 output10:A 0.0005181217564799999
258 *40:1 0.0023987798184000003
259 *40:3 0
*RES
371 _57_:A *40:1 5.339285714285714
372 _49_:Y *40:2 11.5
373 *40:2 _57_:A 0.6071428571428571
374 output10:A *40:3 5.339285714285714
375 *40:1 *40:3 1951.9999999999998
376 _57_:A _57_:A 0
377 *40:1 *40:1 0
378 _49_:Y _49_:Y 0
379 *40:3 *40:3 0
380 output10:A output10:A 0
*END

*D_NET *41 0.00030913078776000004
*CONN
*I output11:A I
*I _57_:Y O
*CAP
260 *41:1 5.034052896000001e-05
261 *41:2 0.00016946796088000002
262 *41:4 8.932229792e-05
263 output11:A 0
264 _57_:Y 0
*RES
381 *41:1 output11:A 0.4107142857142857
382 *41:2 *41:3 1.8214285714285714
383 *41:4 _57_:Y 0.8214285714285714
384 output11:A output11:A 0
385 *41:1 *41:2 0
386 *41:4 *41:3 0
387 _57_:Y _57_:Y 0
*END

*D_NET *42 0.00025879025880000005
*CONN
*I output12:A I
*I _58_:Q O
*CAP
265 *42:1 8.932229792e-05
266 *42:2 0.00016946796088000002
267 _58_:Q 0
268 output12:A 0
*RES
388 *42:1 _58_:Q 0.8214285714285714
389 *42:2 *42:3 1.8214285714285714
390 _58_:Q _58_:Q 0
391 *42:1 *42:2 0
392 output12:A output12:A 0
393 output12:A *42:3 0
*END

*D_NET *43 0.00047065084663999994
*CONN
*I output13:A I
*I _59_:Q O
*CAP
269 *43:1 8.932229792e-05
270 *43:2 0.00038132854871999994
271 _59_:Q 0
272 output13:A 0
*RES
394 *43:1 _59_:Q 0.8214285714285714
395 *43:2 *43:3 4.249999999999999
396 _59_:Q _59_:Q 0
397 *43:1 *43:2 0
398 output13:A output13:A 0
399 output13:A *43:3 0
*END

*D_NET *44 0.00088225314992
*CONN
*I output14:A I
*I _60_:Q O
*CAP
273 *44:1 0.00011650281392
274 *44:3 0.0002854207456
275 _60_:Q 0.0004803295904
276 output14:A 0
277 *44:4 0
*RES
400 *44:1 *44:2 1.2142857142857142
401 *44:3 *44:4 2.464285714285714
402 *44:3 *44:5 0.30357142857142855
403 _60_:Q *44:5 4.517857142857142
404 _60_:Q _60_:Q 0.30357142857142855
405 output14:A output14:A 0
406 output14:A *44:1 0
407 *44:4 *44:2 0
408 _60_:Q _60_:Q 0
*END

*D_NET *45 0.0014493505830000001
*CONN
*I input2:X O
*I _38_:B I
*I _45_:A2 I
*I _49_:A I
*I _54_:A4 I
*CAP
278 *45:1 0.00024891568132000004
279 _38_:B 0.00016728583584
280 *45:4 8.932229792e-05
281 *45:5 0.00015622667414000004
282 *45:6 4.640188412000001e-05
283 *45:7 0.00012974410066
284 *45:8 5.034052896000001e-05
285 *45:9 0.00035484597524
286 input2:X 0.0002062676048
287 _45_:A2 0
288 *45:3 0
289 _54_:A4 0
290 _49_:A 0
291 *45:10 0
*RES
409 *45:1 *45:2 2.7321428571428568
410 _38_:B *45:3 1.6428571428571428
411 *45:4 _54_:A4 0.8214285714285714
412 *45:5 *45:6 1.669642857142857
413 *45:6 *45:7 0.4107142857142857
414 *45:7 *45:1 1.3660714285714284
415 *45:8 _49_:A 0.4107142857142857
416 *45:9 *45:5 3.946428571428571
417 input2:X *45:10 2.0535714285714284
418 _45_:A2 _45_:A2 0
419 _45_:A2 *45:1 0
420 *45:3 *45:2 0
421 _38_:B _38_:B 0
422 _54_:A4 _54_:A4 0
423 *45:4 *45:5 0
424 _49_:A _49_:A 0
425 *45:8 *45:9 0
426 input2:X input2:X 0
427 *45:10 *45:11 0
*END

*D_NET *46 0.0027322040257200006
*CONN
*I input3:X O
*I _38_:A I
*I _45_:A1 I
*I _52_:A I
*CAP
292 _45_:A1 0.00040117644959999997
293 *46:2 0.00056670656308
294 _52_:A 8.932229792e-05
295 *46:5 0.0006752384351999999
296 *46:7 0.00023567439458000006
297 *46:9 4.640188412000001e-05
298 *46:3 5.029638022e-05
299 *46:10 5.034052896000001e-05
300 *46:11 0.00056670656308
301 *46:13 5.034052896000001e-05
302 *46:1 0
303 *46:4 0
304 _38_:A 0
305 *46:6 0
306 input3:X 0
*RES
428 _45_:A1 *46:1 4.107142857142857
429 *46:2 *46:3 6.374999999999999
430 _52_:A *46:4 0.8214285714285714
431 *46:5 _38_:A 0.30357142857142855
432 *46:5 *46:6 6.571428571428571
433 *46:7 *46:8 2.580357142857143
434 *46:9 *46:7 0.4107142857142857
435 *46:3 *46:9 0.45535714285714285
436 *46:10 input3:X 0.4107142857142857
437 *46:11 *46:12 6.374999999999999
438 *46:13 _38_:A 0.4107142857142857
439 _45_:A1 _45_:A1 0
440 *46:1 *46:3 0
441 *46:4 *46:2 0
442 _52_:A _52_:A 0
443 _38_:A _38_:A 0
444 *46:6 *46:8 0
445 input3:X input3:X 0
446 *46:10 *46:12 0
447 *46:13 *46:11 0
*END

*D_NET *47 0.00269841136732
*CONN
*I input4:X O
*I _39_:B I
*I _41_:A I
*I _45_:C1 I
*I _53_:B I
*I _54_:A2 I
*CAP
307 *47:1 5.034052896000001e-05
308 *47:2 0.00048725884264
309 input4:X 0.00024524937376
310 _54_:A2 5.034052896000001e-05
311 *47:6 0.00011650281392
312 _53_:B 8.932229792e-05
313 *47:8 0.00024891568132000004
314 *47:10 0.00028423114272
315 _45_:C1 0.0004599912761599999
316 _41_:A 4.017137184e-05
317 *47:12 0.00062608750912
318 *47:4 0
319 *47:5 0
320 _39_:B 0
*RES
448 *47:1 _53_:B 0.4107142857142857
449 *47:2 *47:3 5.4642857142857135
450 input4:X *47:4 2.464285714285714
451 _54_:A2 *47:5 0.4107142857142857
452 *47:6 *47:7 1.2142857142857142
453 _53_:B _53_:B 0.8214285714285714
454 *47:8 *47:9 2.7321428571428568
455 *47:10 _54_:A2 2.875
456 _45_:C1 _39_:B 3.6964285714285707
457 _45_:C1 _45_:C1 0.9107142857142857
458 _41_:A *47:11 0.30357142857142855
459 *47:12 *47:11 5.75
460 *47:12 _53_:B 0.6071428571428571
461 _53_:B _53_:B 0
462 *47:1 *47:3 0
463 *47:4 *47:2 0
464 input4:X input4:X 0
465 _54_:A2 _54_:A2 0
466 *47:5 *47:7 0
467 _53_:B *47:6 0
468 _45_:C1 _45_:C1 0
469 _45_:C1 *47:9 0
470 *47:10 *47:8 0
471 _39_:B _39_:B 0
472 _41_:A _41_:A 0
*END

*D_NET *48 0.0015695117115999998
*CONN
*I input5:X O
*I _37_:A I
*I _42_:B1 I
*CAP
321 _42_:B1 5.034052896000001e-05
322 *48:2 0.00077856715092
323 *48:4 8.932229792e-05
324 *48:5 0.0004023660524799999
325 *48:7 0.00024891568132000004
326 *48:1 0
327 input5:X 0
328 _37_:A 0
329 *48:6 0
*RES
473 _42_:B1 *48:1 0.4107142857142857
474 *48:2 *48:3 8.803571428571427
475 *48:4 input5:X 0.8214285714285714
476 *48:5 _37_:A 0.30357142857142855
477 *48:5 *48:6 3.6964285714285707
478 *48:7 *48:2 2.7321428571428568
479 _42_:B1 _42_:B1 0
480 *48:1 *48:2 0
481 *48:4 *48:3 0
482 input5:X input5:X 0
483 _37_:A _37_:A 0
484 *48:6 *48:7 0
*END

*D_NET *49 0.0014683285448800001
*CONN
*I input6:X O
*I _29_:A I
*I _35_:B2 I
*CAP
330 _29_:A 8.932229792e-05
331 *49:2 0.00064615428352
332 _35_:B2 5.034052896000001e-05
333 input6:X 8.932229792e-05
334 *49:6 0.00059318913656
335 *49:1 0
336 *49:4 0
337 *49:5 0
*RES
485 _29_:A *49:1 0.8214285714285714
486 *49:2 *49:3 7.285714285714286
487 _35_:B2 *49:4 0.4107142857142857
488 input6:X *49:5 0.8214285714285714
489 *49:6 *49:2 6.678571428571428
490 _29_:A _29_:A 0
491 *49:1 *49:2 0
492 *49:4 *49:3 0
493 _35_:B2 _35_:B2 0
494 input6:X input6:X 0
495 *49:5 *49:6 0
*END

*D_NET *50 0.00200276371772
*CONN
*I input7:X O
*I _28_:A I
*I _35_:B1 I
*CAP
338 _35_:B1 0.00012830406688
339 *50:2 0.0009904277387600001
340 input7:X 0.0005193113593599999
341 _28_:A 8.932229792e-05
342 *50:3 0.0002753982548
343 *50:1 0
344 *50:4 0
345 *50:5 0
*RES
496 _35_:B1 *50:1 1.232142857142857
497 *50:2 *50:3 11.232142857142856
498 input7:X *50:4 4.928571428571428
499 input7:X input7:X 0.30357142857142855
500 _28_:A *50:5 0.8214285714285714
501 *50:3 *50:6 3.035714285714285
502 _35_:B1 _35_:B1 0
503 *50:1 *50:3 0
504 *50:4 *50:2 0
505 input7:X input7:X 0
506 _28_:A _28_:A 0
507 *50:5 *50:6 0
*END

*D_NET *51 0.00409408753204
*CONN
*I input8:X O
*I _31_:A I
*I _32_:A I
*CAP
346 input8:X 0.0004791399875199999
347 *51:2 0.00012830406688
348 *51:3 0.00022243310784000002
349 *51:5 0.0006752384351999999
350 *51:6 0.0005181217564799999
351 *51:1 0.00207085017812
352 _31_:A 0
353 _32_:A 0
354 *51:7 0
*RES
508 input8:X *51:1 4.928571428571428
509 *51:2 _31_:A 1.232142857142857
510 *51:3 *51:4 2.4285714285714284
511 *51:5 *51:6 6.571428571428571
512 *51:5 _32_:A 0.30357142857142855
513 *51:6 *51:7 5.339285714285714
514 *51:1 *51:7 1683.6
515 input8:X input8:X 0
516 *51:1 *51:1 0
517 _31_:A _31_:A 0
518 *51:2 *51:3 0
519 *51:6 *51:4 0
520 _32_:A _32_:A 0
521 *51:7 *51:7 0
*END

*D_NET *52 0.0027276757720400002
*CONN
*I input9:X O
*I _30_:A I
*I _33_:B1 I
*I _36_:A I
*I _46_:C I
*I _50_:A I
*CAP
355 *52:1 2.3813806740000006e-05
356 *52:3 4.640188412000001e-05
357 *52:4 0.00076532586418
358 *52:5 0.00024524937376
359 *52:2 0.00043429369568000003
360 *52:7 0.0002062676048
361 *52:8 5.034052896000001e-05
362 *52:9 0.00019595053436
363 *52:11 5.034052896000001e-05
364 *52:10 0.00024891568132000004
365 *52:6 0.00046077626916000004
366 _36_:A 0
367 input9:X 0
368 _46_:C 0
369 _50_:A 0
370 _33_:B1 0
371 _30_:A 0
*RES
522 *52:1 *52:2 0.15178571428571427
523 *52:3 *52:1 0.4107142857142857
524 *52:4 *52:3 8.651785714285714
525 *52:5 input9:X 2.464285714285714
526 *52:2 *52:6 4.857142857142857
527 *52:7 _50_:A 2.0535714285714284
528 *52:8 _33_:B1 0.4107142857142857
529 *52:9 *52:10 2.1249999999999996
530 *52:11 _30_:A 0.4107142857142857
531 *52:10 *52:12 2.7321428571428568
532 *52:6 *52:9 5.160714285714286
533 _36_:A _36_:A 0
534 _36_:A *52:2 0
535 *52:5 *52:4 0
536 input9:X input9:X 0
537 _46_:C _46_:C 0
538 _46_:C *52:6 0
539 _50_:A _50_:A 0
540 *52:7 *52:9 0
541 _33_:B1 _33_:B1 0
542 *52:8 *52:10 0
543 _30_:A _30_:A 0
544 *52:11 *52:12 0
*END

*D_NET *53 0.00047583708559999997
*CONN
*P out[0] O
*I output12:X O
*CAP
372 *53:1 7.67789537e-05
373 *53:3 0.00039905813189999997
374 output12:X 0
375 *53:2 0
*RES
545 *53:1 *53:2 0.7589285714285713
546 *53:3 *53:4 0.6846333333333334
547 output12:X output12:X 0
548 output12:X *53:1 0
549 *53:2 *53:4 0
*END

*D_NET *54 0.0013599269760600002
*CONN
*P out[1] O
*I output13:X O
*CAP
376 *54:1 0.00067404883232
377 *54:2 0.0006858781437400002
378 output13:X 0
*RES
550 *54:1 output13:X 6.982142857142857
551 *54:2 *54:3 7.741071428571428
552 output13:X output13:X 0
553 *54:1 *54:2 0
*END

*D_NET *55 0.00057722300776
*CONN
*P out[2] O
*I output14:X O
*CAP
379 output14:X 0.00016728583584
380 *55:2 5.029638022e-05
381 *55:4 0.0003596407917
382 *55:1 0
*RES
554 output14:X *55:1 1.6428571428571428
555 *55:2 *55:3 0.45535714285714285
556 *55:4 *55:5 0.6125666666666667
557 output14:X output14:X 0
558 *55:1 *55:3 0
559 *55:2 *55:4 0
*END

