* NGSPICE file created from user_proj_example.ext - technology: sky130A

* Black-box entry subcircuit for sky130_fd_sc_hd__fill_1 abstract view
.subckt sky130_fd_sc_hd__fill_1 VGND VNB VPB VPWR
.ends

* Black-box entry subcircuit for sky130_fd_sc_hd__decap_12 abstract view
.subckt sky130_fd_sc_hd__decap_12 VGND VNB VPB VPWR
.ends

* Black-box entry subcircuit for sky130_fd_sc_hd__decap_6 abstract view
.subckt sky130_fd_sc_hd__decap_6 VGND VNB VPB VPWR
.ends

* Black-box entry subcircuit for sky130_fd_sc_hd__tapvpwrvgnd_1 abstract view
.subckt sky130_fd_sc_hd__tapvpwrvgnd_1 VGND VPWR
.ends

* Black-box entry subcircuit for sky130_fd_sc_hd__decap_4 abstract view
.subckt sky130_fd_sc_hd__decap_4 VGND VNB VPB VPWR
.ends

* Black-box entry subcircuit for sky130_fd_sc_hd__decap_3 abstract view
.subckt sky130_fd_sc_hd__decap_3 VGND VNB VPB VPWR
.ends

* Black-box entry subcircuit for sky130_fd_sc_hd__decap_8 abstract view
.subckt sky130_fd_sc_hd__decap_8 VGND VNB VPB VPWR
.ends

* Black-box entry subcircuit for sky130_fd_sc_hd__fill_2 abstract view
.subckt sky130_fd_sc_hd__fill_2 VGND VNB VPB VPWR
.ends

* Black-box entry subcircuit for sky130_fd_sc_hd__clkbuf_2 abstract view
.subckt sky130_fd_sc_hd__clkbuf_2 A VGND VNB VPB VPWR X
.ends

* Black-box entry subcircuit for sky130_fd_sc_hd__dlxtp_1 abstract view
.subckt sky130_fd_sc_hd__dlxtp_1 D GATE VGND VNB VPB VPWR Q
.ends

* Black-box entry subcircuit for sky130_fd_sc_hd__clkinv_4 abstract view
.subckt sky130_fd_sc_hd__clkinv_4 A VGND VNB VPB VPWR Y
.ends

* Black-box entry subcircuit for sky130_fd_sc_hd__a41o_4 abstract view
.subckt sky130_fd_sc_hd__a41o_4 A1 A2 A3 A4 B1 VGND VNB VPB VPWR X
.ends

* Black-box entry subcircuit for sky130_fd_sc_hd__inv_2 abstract view
.subckt sky130_fd_sc_hd__inv_2 A VGND VNB VPB VPWR Y
.ends

* Black-box entry subcircuit for sky130_fd_sc_hd__and4_1 abstract view
.subckt sky130_fd_sc_hd__and4_1 A B C D VGND VNB VPB VPWR X
.ends

* Black-box entry subcircuit for sky130_fd_sc_hd__nor2_1 abstract view
.subckt sky130_fd_sc_hd__nor2_1 A B VGND VNB VPB VPWR Y
.ends

* Black-box entry subcircuit for sky130_fd_sc_hd__a311o_2 abstract view
.subckt sky130_fd_sc_hd__a311o_2 A1 A2 A3 B1 C1 VGND VNB VPB VPWR X
.ends

* Black-box entry subcircuit for sky130_fd_sc_hd__or2_1 abstract view
.subckt sky130_fd_sc_hd__or2_1 A B VGND VNB VPB VPWR X
.ends

* Black-box entry subcircuit for sky130_fd_sc_hd__buf_8 abstract view
.subckt sky130_fd_sc_hd__buf_8 A VGND VNB VPB VPWR X
.ends

* Black-box entry subcircuit for sky130_fd_sc_hd__clkbuf_4 abstract view
.subckt sky130_fd_sc_hd__clkbuf_4 A VGND VNB VPB VPWR X
.ends

* Black-box entry subcircuit for sky130_fd_sc_hd__buf_4 abstract view
.subckt sky130_fd_sc_hd__buf_4 A VGND VNB VPB VPWR X
.ends

* Black-box entry subcircuit for sky130_fd_sc_hd__clkbuf_8 abstract view
.subckt sky130_fd_sc_hd__clkbuf_8 A VGND VNB VPB VPWR X
.ends

* Black-box entry subcircuit for sky130_fd_sc_hd__o221ai_4 abstract view
.subckt sky130_fd_sc_hd__o221ai_4 A1 A2 B1 B2 C1 VGND VNB VPB VPWR Y
.ends

* Black-box entry subcircuit for sky130_fd_sc_hd__a21oi_2 abstract view
.subckt sky130_fd_sc_hd__a21oi_2 A1 A2 B1 VGND VNB VPB VPWR Y
.ends

* Black-box entry subcircuit for sky130_fd_sc_hd__buf_2 abstract view
.subckt sky130_fd_sc_hd__buf_2 A VGND VNB VPB VPWR X
.ends

* Black-box entry subcircuit for sky130_fd_sc_hd__or4_1 abstract view
.subckt sky130_fd_sc_hd__or4_1 A B C D VGND VNB VPB VPWR X
.ends

* Black-box entry subcircuit for sky130_fd_sc_hd__diode_2 abstract view
.subckt sky130_fd_sc_hd__diode_2 DIODE VGND VNB VPB VPWR
.ends

.subckt user_proj_example VGND VPWR io_en io_in[0] io_in[1] io_in[2] io_in[3] io_in[4]
+ io_in[5] io_in[6] io_in[7] io_out[0] io_out[1] io_out[2] wb_eno wb_gs
XFILLER_79_391 VGND VGND VPWR VPWR sky130_fd_sc_hd__fill_1
XFILLER_80_1276 VGND VGND VPWR VPWR sky130_fd_sc_hd__decap_12
XFILLER_171_1393 VGND VGND VPWR VPWR sky130_fd_sc_hd__decap_6
XFILLER_67_553 VGND VGND VPWR VPWR sky130_fd_sc_hd__decap_6
XFILLER_82_501 VGND VGND VPWR VPWR sky130_fd_sc_hd__decap_12
XFILLER_23_1661 VGND VGND VPWR VPWR sky130_fd_sc_hd__decap_12
XFILLER_27_417 VGND VGND VPWR VPWR sky130_fd_sc_hd__decap_12
XFILLER_95_895 VGND VGND VPWR VPWR sky130_fd_sc_hd__fill_1
XFILLER_67_597 VGND VGND VPWR VPWR sky130_fd_sc_hd__decap_12
XFILLER_82_545 VGND VGND VPWR VPWR sky130_fd_sc_hd__decap_12
XFILLER_110_1653 VGND VGND VPWR VPWR sky130_fd_sc_hd__decap_12
XFILLER_208_581 VGND VGND VPWR VPWR sky130_fd_sc_hd__decap_6
XFILLER_184_1721 VGND VGND VPWR VPWR sky130_fd_sc_hd__decap_12
XFILLER_149_1841 VGND VGND VPWR VPWR sky130_fd_sc_hd__decap_6
XFILLER_39_1101 VGND VGND VPWR VPWR sky130_fd_sc_hd__decap_12
XFILLER_97_1773 VGND VGND VPWR VPWR sky130_fd_sc_hd__decap_12
XFILLER_36_973 VGND VGND VPWR VPWR sky130_fd_sc_hd__decap_6
XFILLER_78_1161 VGND VGND VPWR VPWR sky130_fd_sc_hd__decap_12
XFILLER_35_461 VGND VGND VPWR VPWR sky130_fd_sc_hd__decap_12
XFILLER_82_589 VGND VGND VPWR VPWR sky130_fd_sc_hd__decap_12
XFILLER_145_1705 VGND VGND VPWR VPWR sky130_fd_sc_hd__decap_12
XFILLER_51_921 VGND VGND VPWR VPWR sky130_fd_sc_hd__decap_12
XFILLER_58_1757 VGND VGND VPWR VPWR sky130_fd_sc_hd__decap_6
XFILLER_93_1637 VGND VGND VPWR VPWR sky130_fd_sc_hd__decap_12
XFILLER_184_1765 VGND VGND VPWR VPWR sky130_fd_sc_hd__decap_12
XFILLER_149_1885 VGND VGND VPWR VPWR sky130_fd_sc_hd__decap_12
XFILLER_39_1145 VGND VGND VPWR VPWR sky130_fd_sc_hd__decap_12
XFILLER_211_713 VGND VGND VPWR VPWR sky130_fd_sc_hd__decap_12
XFILLER_165_1175 VGND VGND VPWR VPWR sky130_fd_sc_hd__fill_1
XFILLER_145_1749 VGND VGND VPWR VPWR sky130_fd_sc_hd__decap_12
XFILLER_35_1009 VGND VGND VPWR VPWR sky130_fd_sc_hd__decap_12
XFILLER_51_965 VGND VGND VPWR VPWR sky130_fd_sc_hd__decap_12
XFILLER_52_29 VGND VGND VPWR VPWR sky130_fd_sc_hd__decap_12
XFILLER_211_735 VGND VGND VPWR VPWR sky130_fd_sc_hd__decap_12
XFILLER_196_937 VGND VGND VPWR VPWR sky130_fd_sc_hd__decap_12
XFILLER_22_133 VGND VGND VPWR VPWR sky130_fd_sc_hd__decap_6
XFILLER_39_1189 VGND VGND VPWR VPWR sky130_fd_sc_hd__decap_12
XFILLER_167_105 VGND VGND VPWR VPWR sky130_fd_sc_hd__decap_6
XFILLER_211_757 VGND VGND VPWR VPWR sky130_fd_sc_hd__decap_12
XFILLER_168_29 VGND VGND VPWR VPWR sky130_fd_sc_hd__decap_12
XFILLER_50_475 VGND VGND VPWR VPWR sky130_fd_sc_hd__fill_1
XFILLER_210_245 VGND VGND VPWR VPWR sky130_fd_sc_hd__decap_6
XFILLER_195_447 VGND VGND VPWR VPWR sky130_fd_sc_hd__fill_1
XFILLER_206_1161 VGND VGND VPWR VPWR sky130_fd_sc_hd__decap_12
XFILLER_167_149 VGND VGND VPWR VPWR sky130_fd_sc_hd__decap_12
XFILLER_22_177 VGND VGND VPWR VPWR sky130_fd_sc_hd__decap_12
XFILLER_183_609 VGND VGND VPWR VPWR sky130_fd_sc_hd__decap_6
XFILLER_149_853 VGND VGND VPWR VPWR sky130_fd_sc_hd__decap_12
XFILLER_210_289 VGND VGND VPWR VPWR sky130_fd_sc_hd__decap_12
XFILLER_148_363 VGND VGND VPWR VPWR sky130_fd_sc_hd__fill_1
XFILLER_149_897 VGND VGND VPWR VPWR sky130_fd_sc_hd__decap_12
XFILLER_136_525 VGND VGND VPWR VPWR sky130_fd_sc_hd__decap_6
XFILLER_30_1621 VGND VGND VPWR VPWR sky130_fd_sc_hd__decap_12
XFILLER_175_193 VGND VGND VPWR VPWR sky130_fd_sc_hd__decap_12
XFILLER_191_653 VGND VGND VPWR VPWR sky130_fd_sc_hd__decap_12
XFILLER_164_867 VGND VGND VPWR VPWR sky130_fd_sc_hd__fill_1
XFILLER_136_569 VGND VGND VPWR VPWR sky130_fd_sc_hd__decap_12
XFILLER_30_1665 VGND VGND VPWR VPWR sky130_fd_sc_hd__decap_12
XFILLER_50_1091 VGND VGND VPWR VPWR sky130_fd_sc_hd__fill_1
XFILLER_190_141 VGND VGND VPWR VPWR sky130_fd_sc_hd__decap_12
XFILLER_121_1793 VGND VGND VPWR VPWR sky130_fd_sc_hd__decap_12
XFILLER_156_1801 VGND VGND VPWR VPWR sky130_fd_sc_hd__decap_12
XFILLER_151_517 VGND VGND VPWR VPWR sky130_fd_sc_hd__decap_12
XFILLER_195_1861 VGND VGND VPWR VPWR sky130_fd_sc_hd__decap_12
XFILLER_85_1121 VGND VGND VPWR VPWR sky130_fd_sc_hd__decap_12
XFILLER_191_697 VGND VGND VPWR VPWR sky130_fd_sc_hd__decap_12
XFILLER_117_783 VGND VGND VPWR VPWR sky130_fd_sc_hd__fill_1
XFILLER_65_1717 VGND VGND VPWR VPWR sky130_fd_sc_hd__decap_12
XFILLER_105_945 VGND VGND VPWR VPWR sky130_fd_sc_hd__decap_6
XFILLER_46_1105 VGND VGND VPWR VPWR sky130_fd_sc_hd__decap_12
XFILLER_89_111 VGND VGND VPWR VPWR sky130_fd_sc_hd__fill_1
XFILLER_156_1845 VGND VGND VPWR VPWR sky130_fd_sc_hd__decap_12
XFILLER_69_1897 VGND VGND VPWR VPWR sky130_fd_sc_hd__decap_6
XFILLER_137_1233 VGND VGND VPWR VPWR sky130_fd_sc_hd__decap_12
XFILLER_117_55 VGND VGND VPWR VPWR sky130_fd_sc_hd__fill_1
XFILLER_104_433 VGND VGND VPWR VPWR sky130_fd_sc_hd__decap_12
XFILLER_81_1007 VGND VGND VPWR VPWR sky130_fd_sc_hd__fill_1
XFILLER_77_15 VGND VGND VPWR VPWR sky130_fd_sc_hd__decap_12
XFILLER_152_1709 VGND VGND VPWR VPWR sky130_fd_sc_hd__decap_12
XFILLER_117_1829 VGND VGND VPWR VPWR sky130_fd_sc_hd__decap_12
XFILLER_156_1889 VGND VGND VPWR VPWR sky130_fd_sc_hd__decap_12
XFILLER_105_989 VGND VGND VPWR VPWR sky130_fd_sc_hd__decap_12
XFILLER_46_1149 VGND VGND VPWR VPWR sky130_fd_sc_hd__decap_12
XFILLER_104_477 VGND VGND VPWR VPWR sky130_fd_sc_hd__decap_12
XFILLER_77_317 VGND VGND VPWR VPWR sky130_fd_sc_hd__decap_12
XFILLER_133_1119 VGND VGND VPWR VPWR sky130_fd_sc_hd__fill_1
XFILLER_120_937 VGND VGND VPWR VPWR sky130_fd_sc_hd__decap_12
XFILLER_8_1633 VGND VGND VPWR VPWR sky130_fd_sc_hd__decap_12
XFILLER_58_531 VGND VGND VPWR VPWR sky130_fd_sc_hd__fill_1
XFILLER_8_1677 VGND VGND VPWR VPWR sky130_fd_sc_hd__decap_12
XFILLER_92_309 VGND VGND VPWR VPWR sky130_fd_sc_hd__decap_12
XTAP_3202 VGND VPWR sky130_fd_sc_hd__tapvpwrvgnd_1
XFILLER_150_1477 VGND VGND VPWR VPWR sky130_fd_sc_hd__decap_6
XTAP_3213 VGND VPWR sky130_fd_sc_hd__tapvpwrvgnd_1
XFILLER_85_361 VGND VGND VPWR VPWR sky130_fd_sc_hd__decap_12
XFILLER_41_1761 VGND VGND VPWR VPWR sky130_fd_sc_hd__decap_12
XFILLER_46_737 VGND VGND VPWR VPWR sky130_fd_sc_hd__decap_12
XTAP_3224 VGND VPWR sky130_fd_sc_hd__tapvpwrvgnd_1
XTAP_3235 VGND VPWR sky130_fd_sc_hd__tapvpwrvgnd_1
XFILLER_45_225 VGND VGND VPWR VPWR sky130_fd_sc_hd__decap_12
XTAP_2501 VGND VPWR sky130_fd_sc_hd__tapvpwrvgnd_1
XFILLER_172_3 VGND VGND VPWR VPWR sky130_fd_sc_hd__decap_12
XTAP_3246 VGND VPWR sky130_fd_sc_hd__tapvpwrvgnd_1
XTAP_2512 VGND VPWR sky130_fd_sc_hd__tapvpwrvgnd_1
XTAP_3257 VGND VPWR sky130_fd_sc_hd__tapvpwrvgnd_1
XFILLER_27_951 VGND VGND VPWR VPWR sky130_fd_sc_hd__fill_1
XTAP_2523 VGND VPWR sky130_fd_sc_hd__tapvpwrvgnd_1
XFILLER_76_1813 VGND VGND VPWR VPWR sky130_fd_sc_hd__decap_6
XTAP_3268 VGND VPWR sky130_fd_sc_hd__tapvpwrvgnd_1
XFILLER_93_69 VGND VGND VPWR VPWR sky130_fd_sc_hd__decap_12
XTAP_2534 VGND VPWR sky130_fd_sc_hd__tapvpwrvgnd_1
XTAP_3279 VGND VPWR sky130_fd_sc_hd__tapvpwrvgnd_1
XFILLER_26_41 VGND VGND VPWR VPWR sky130_fd_sc_hd__decap_12
XTAP_1800 VGND VPWR sky130_fd_sc_hd__tapvpwrvgnd_1
XFILLER_57_1201 VGND VGND VPWR VPWR sky130_fd_sc_hd__decap_12
XTAP_2545 VGND VPWR sky130_fd_sc_hd__tapvpwrvgnd_1
XTAP_1811 VGND VPWR sky130_fd_sc_hd__tapvpwrvgnd_1
XFILLER_61_729 VGND VGND VPWR VPWR sky130_fd_sc_hd__decap_12
XTAP_2556 VGND VPWR sky130_fd_sc_hd__tapvpwrvgnd_1
XFILLER_96_1261 VGND VGND VPWR VPWR sky130_fd_sc_hd__decap_12
XFILLER_14_601 VGND VGND VPWR VPWR sky130_fd_sc_hd__decap_12
XTAP_1822 VGND VPWR sky130_fd_sc_hd__tapvpwrvgnd_1
XFILLER_183_1231 VGND VGND VPWR VPWR sky130_fd_sc_hd__fill_1
XFILLER_163_1805 VGND VGND VPWR VPWR sky130_fd_sc_hd__decap_12
XFILLER_128_1925 VGND VGND VPWR VPWR sky130_fd_sc_hd__decap_4
XFILLER_54_781 VGND VGND VPWR VPWR sky130_fd_sc_hd__decap_12
XTAP_2567 VGND VPWR sky130_fd_sc_hd__tapvpwrvgnd_1
XFILLER_76_1857 VGND VGND VPWR VPWR sky130_fd_sc_hd__decap_12
XFILLER_199_753 VGND VGND VPWR VPWR sky130_fd_sc_hd__decap_12
XTAP_1833 VGND VPWR sky130_fd_sc_hd__tapvpwrvgnd_1
XFILLER_57_1245 VGND VGND VPWR VPWR sky130_fd_sc_hd__decap_12
XTAP_2578 VGND VPWR sky130_fd_sc_hd__tapvpwrvgnd_1
XFILLER_109_1313 VGND VGND VPWR VPWR sky130_fd_sc_hd__decap_12
XFILLER_26_85 VGND VGND VPWR VPWR sky130_fd_sc_hd__decap_12
XTAP_1844 VGND VPWR sky130_fd_sc_hd__tapvpwrvgnd_1
XTAP_2589 VGND VPWR sky130_fd_sc_hd__tapvpwrvgnd_1
XFILLER_202_713 VGND VGND VPWR VPWR sky130_fd_sc_hd__decap_12
XFILLER_148_1373 VGND VGND VPWR VPWR sky130_fd_sc_hd__decap_12
XFILLER_14_645 VGND VGND VPWR VPWR sky130_fd_sc_hd__decap_12
XFILLER_13_111 VGND VGND VPWR VPWR sky130_fd_sc_hd__fill_1
XTAP_1855 VGND VPWR sky130_fd_sc_hd__tapvpwrvgnd_1
XFILLER_159_617 VGND VGND VPWR VPWR sky130_fd_sc_hd__decap_12
XTAP_1866 VGND VPWR sky130_fd_sc_hd__tapvpwrvgnd_1
XFILLER_92_1147 VGND VGND VPWR VPWR sky130_fd_sc_hd__fill_1
XFILLER_163_1849 VGND VGND VPWR VPWR sky130_fd_sc_hd__decap_12
XFILLER_18_1229 VGND VGND VPWR VPWR sky130_fd_sc_hd__decap_12
XFILLER_199_797 VGND VGND VPWR VPWR sky130_fd_sc_hd__decap_12
XFILLER_109_1357 VGND VGND VPWR VPWR sky130_fd_sc_hd__decap_12
XTAP_1877 VGND VPWR sky130_fd_sc_hd__tapvpwrvgnd_1
XFILLER_57_1289 VGND VGND VPWR VPWR sky130_fd_sc_hd__decap_12
XFILLER_201_223 VGND VGND VPWR VPWR sky130_fd_sc_hd__fill_1
XTAP_1888 VGND VPWR sky130_fd_sc_hd__tapvpwrvgnd_1
XFILLER_204_1813 VGND VGND VPWR VPWR sky130_fd_sc_hd__decap_6
XFILLER_202_757 VGND VGND VPWR VPWR sky130_fd_sc_hd__decap_12
XTAP_1899 VGND VPWR sky130_fd_sc_hd__tapvpwrvgnd_1
XFILLER_144_1259 VGND VGND VPWR VPWR sky130_fd_sc_hd__fill_1
XFILLER_9_137 VGND VGND VPWR VPWR sky130_fd_sc_hd__decap_12
XFILLER_41_497 VGND VGND VPWR VPWR sky130_fd_sc_hd__decap_6
XFILLER_186_469 VGND VGND VPWR VPWR sky130_fd_sc_hd__decap_6
XFILLER_204_1857 VGND VGND VPWR VPWR sky130_fd_sc_hd__decap_12
XFILLER_127_503 VGND VGND VPWR VPWR sky130_fd_sc_hd__fill_1
XFILLER_6_811 VGND VGND VPWR VPWR sky130_fd_sc_hd__fill_1
XFILLER_139_385 VGND VGND VPWR VPWR sky130_fd_sc_hd__decap_6
XFILLER_13_1841 VGND VGND VPWR VPWR sky130_fd_sc_hd__decap_6
XFILLER_154_333 VGND VGND VPWR VPWR sky130_fd_sc_hd__decap_12
XFILLER_115_709 VGND VGND VPWR VPWR sky130_fd_sc_hd__decap_12
XFILLER_155_889 VGND VGND VPWR VPWR sky130_fd_sc_hd__decap_6
XFILLER_13_1885 VGND VGND VPWR VPWR sky130_fd_sc_hd__decap_12
XFILLER_100_1833 VGND VGND VPWR VPWR sky130_fd_sc_hd__decap_12
XFILLER_177_1057 VGND VGND VPWR VPWR sky130_fd_sc_hd__decap_6
XFILLER_174_1901 VGND VGND VPWR VPWR sky130_fd_sc_hd__decap_12
XFILLER_154_377 VGND VGND VPWR VPWR sky130_fd_sc_hd__decap_12
XFILLER_170_837 VGND VGND VPWR VPWR sky130_fd_sc_hd__decap_12
XFILLER_68_1341 VGND VGND VPWR VPWR sky130_fd_sc_hd__decap_12
XFILLER_83_1817 VGND VGND VPWR VPWR sky130_fd_sc_hd__decap_12
XFILLER_100_1877 VGND VGND VPWR VPWR sky130_fd_sc_hd__decap_12
XFILLER_194_1371 VGND VGND VPWR VPWR sky130_fd_sc_hd__fill_1
XFILLER_29_1325 VGND VGND VPWR VPWR sky130_fd_sc_hd__decap_12
XFILLER_64_1205 VGND VGND VPWR VPWR sky130_fd_sc_hd__decap_12
XFILLER_107_293 VGND VGND VPWR VPWR sky130_fd_sc_hd__decap_12
XFILLER_68_1385 VGND VGND VPWR VPWR sky130_fd_sc_hd__decap_12
XFILLER_123_753 VGND VGND VPWR VPWR sky130_fd_sc_hd__decap_12
XFILLER_174_83 VGND VGND VPWR VPWR sky130_fd_sc_hd__fill_1
XFILLER_116_1317 VGND VGND VPWR VPWR sky130_fd_sc_hd__decap_12
XFILLER_29_1369 VGND VGND VPWR VPWR sky130_fd_sc_hd__decap_12
XFILLER_123_797 VGND VGND VPWR VPWR sky130_fd_sc_hd__decap_12
XFILLER_96_637 VGND VGND VPWR VPWR sky130_fd_sc_hd__decap_6
XFILLER_155_1399 VGND VGND VPWR VPWR sky130_fd_sc_hd__fill_1
XFILLER_7_1121 VGND VGND VPWR VPWR sky130_fd_sc_hd__decap_12
XFILLER_95_125 VGND VGND VPWR VPWR sky130_fd_sc_hd__decap_12
XFILLER_211_1817 VGND VGND VPWR VPWR sky130_fd_sc_hd__decap_3
XFILLER_49_553 VGND VGND VPWR VPWR sky130_fd_sc_hd__decap_6
XTAP_5160 VGND VPWR sky130_fd_sc_hd__tapvpwrvgnd_1
XFILLER_110_469 VGND VGND VPWR VPWR sky130_fd_sc_hd__decap_6
XFILLER_67_81 VGND VGND VPWR VPWR sky130_fd_sc_hd__decap_12
XFILLER_95_169 VGND VGND VPWR VPWR sky130_fd_sc_hd__decap_12
XTAP_5171 VGND VPWR sky130_fd_sc_hd__tapvpwrvgnd_1
XFILLER_3_1007 VGND VGND VPWR VPWR sky130_fd_sc_hd__fill_1
XTAP_5182 VGND VPWR sky130_fd_sc_hd__tapvpwrvgnd_1
XFILLER_64_501 VGND VGND VPWR VPWR sky130_fd_sc_hd__decap_12
XTAP_5193 VGND VPWR sky130_fd_sc_hd__tapvpwrvgnd_1
XFILLER_20_1801 VGND VGND VPWR VPWR sky130_fd_sc_hd__decap_12
XFILLER_77_895 VGND VGND VPWR VPWR sky130_fd_sc_hd__fill_1
XFILLER_114_1085 VGND VGND VPWR VPWR sky130_fd_sc_hd__decap_6
XFILLER_49_597 VGND VGND VPWR VPWR sky130_fd_sc_hd__decap_12
XTAP_4470 VGND VPWR sky130_fd_sc_hd__tapvpwrvgnd_1
XTAP_4481 VGND VPWR sky130_fd_sc_hd__tapvpwrvgnd_1
XFILLER_64_545 VGND VGND VPWR VPWR sky130_fd_sc_hd__decap_12
XTAP_4492 VGND VPWR sky130_fd_sc_hd__tapvpwrvgnd_1
XFILLER_20_1845 VGND VGND VPWR VPWR sky130_fd_sc_hd__decap_12
XFILLER_0_1917 VGND VGND VPWR VPWR sky130_fd_sc_hd__decap_12
XFILLER_184_1017 VGND VGND VPWR VPWR sky130_fd_sc_hd__decap_12
XFILLER_94_1913 VGND VGND VPWR VPWR sky130_fd_sc_hd__decap_12
XFILLER_18_973 VGND VGND VPWR VPWR sky130_fd_sc_hd__decap_6
XFILLER_75_1301 VGND VGND VPWR VPWR sky130_fd_sc_hd__decap_12
XFILLER_188_1197 VGND VGND VPWR VPWR sky130_fd_sc_hd__decap_6
XFILLER_64_589 VGND VGND VPWR VPWR sky130_fd_sc_hd__decap_12
XTAP_3780 VGND VPWR sky130_fd_sc_hd__tapvpwrvgnd_1
XFILLER_17_461 VGND VGND VPWR VPWR sky130_fd_sc_hd__decap_12
XFILLER_79_1481 VGND VGND VPWR VPWR sky130_fd_sc_hd__decap_12
XFILLER_20_1889 VGND VGND VPWR VPWR sky130_fd_sc_hd__decap_12
XFILLER_33_921 VGND VGND VPWR VPWR sky130_fd_sc_hd__decap_12
XFILLER_51_217 VGND VGND VPWR VPWR sky130_fd_sc_hd__decap_6
XTAP_3791 VGND VPWR sky130_fd_sc_hd__tapvpwrvgnd_1
XFILLER_209_1735 VGND VGND VPWR VPWR sky130_fd_sc_hd__fill_1
XFILLER_181_1905 VGND VGND VPWR VPWR sky130_fd_sc_hd__decap_12
XFILLER_127_1413 VGND VGND VPWR VPWR sky130_fd_sc_hd__decap_12
XFILLER_75_1345 VGND VGND VPWR VPWR sky130_fd_sc_hd__decap_12
XFILLER_205_573 VGND VGND VPWR VPWR sky130_fd_sc_hd__decap_12
XFILLER_162_1315 VGND VGND VPWR VPWR sky130_fd_sc_hd__fill_1
XFILLER_33_965 VGND VGND VPWR VPWR sky130_fd_sc_hd__decap_12
XFILLER_178_937 VGND VGND VPWR VPWR sky130_fd_sc_hd__decap_12
XFILLER_149_105 VGND VGND VPWR VPWR sky130_fd_sc_hd__decap_6
XFILLER_36_1329 VGND VGND VPWR VPWR sky130_fd_sc_hd__decap_12
XFILLER_127_1457 VGND VGND VPWR VPWR sky130_fd_sc_hd__decap_12
XFILLER_32_475 VGND VGND VPWR VPWR sky130_fd_sc_hd__fill_1
XFILLER_203_1301 VGND VGND VPWR VPWR sky130_fd_sc_hd__decap_12
XFILLER_177_447 VGND VGND VPWR VPWR sky130_fd_sc_hd__fill_1
XFILLER_149_149 VGND VGND VPWR VPWR sky130_fd_sc_hd__decap_12
XFILLER_20_637 VGND VGND VPWR VPWR sky130_fd_sc_hd__decap_6
XFILLER_18_1763 VGND VGND VPWR VPWR sky130_fd_sc_hd__fill_1
XFILLER_207_1481 VGND VGND VPWR VPWR sky130_fd_sc_hd__decap_12
XFILLER_165_609 VGND VGND VPWR VPWR sky130_fd_sc_hd__decap_6
XFILLER_121_1001 VGND VGND VPWR VPWR sky130_fd_sc_hd__decap_6
XFILLER_203_1345 VGND VGND VPWR VPWR sky130_fd_sc_hd__decap_12
XFILLER_186_981 VGND VGND VPWR VPWR sky130_fd_sc_hd__decap_12
XFILLER_160_1061 VGND VGND VPWR VPWR sky130_fd_sc_hd__decap_12
XFILLER_9_671 VGND VGND VPWR VPWR sky130_fd_sc_hd__fill_1
XFILLER_118_525 VGND VGND VPWR VPWR sky130_fd_sc_hd__decap_6
XFILLER_121_1045 VGND VGND VPWR VPWR sky130_fd_sc_hd__decap_12
XFILLER_195_1113 VGND VGND VPWR VPWR sky130_fd_sc_hd__decap_6
XFILLER_157_193 VGND VGND VPWR VPWR sky130_fd_sc_hd__decap_12
XFILLER_146_867 VGND VGND VPWR VPWR sky130_fd_sc_hd__fill_1
XFILLER_173_653 VGND VGND VPWR VPWR sky130_fd_sc_hd__decap_12
XFILLER_118_569 VGND VGND VPWR VPWR sky130_fd_sc_hd__decap_12
XFILLER_172_141 VGND VGND VPWR VPWR sky130_fd_sc_hd__decap_12
XFILLER_121_1089 VGND VGND VPWR VPWR sky130_fd_sc_hd__decap_12
XFILLER_195_1157 VGND VGND VPWR VPWR sky130_fd_sc_hd__decap_12
XFILLER_133_517 VGND VGND VPWR VPWR sky130_fd_sc_hd__decap_12
XFILLER_12_1373 VGND VGND VPWR VPWR sky130_fd_sc_hd__decap_12
XFILLER_173_697 VGND VGND VPWR VPWR sky130_fd_sc_hd__decap_12
XFILLER_86_1441 VGND VGND VPWR VPWR sky130_fd_sc_hd__decap_12
XFILLER_47_1425 VGND VGND VPWR VPWR sky130_fd_sc_hd__decap_12
XFILLER_138_1553 VGND VGND VPWR VPWR sky130_fd_sc_hd__decap_12
XFILLER_86_1485 VGND VGND VPWR VPWR sky130_fd_sc_hd__decap_12
XFILLER_173_1455 VGND VGND VPWR VPWR sky130_fd_sc_hd__fill_1
XFILLER_141_561 VGND VGND VPWR VPWR sky130_fd_sc_hd__decap_12
XFILLER_47_1469 VGND VGND VPWR VPWR sky130_fd_sc_hd__decap_12
XFILLER_87_615 VGND VGND VPWR VPWR sky130_fd_sc_hd__fill_1
XFILLER_138_1597 VGND VGND VPWR VPWR sky130_fd_sc_hd__decap_12
XFILLER_102_937 VGND VGND VPWR VPWR sky130_fd_sc_hd__decap_12
XFILLER_59_317 VGND VGND VPWR VPWR sky130_fd_sc_hd__decap_12
XFILLER_99_497 VGND VGND VPWR VPWR sky130_fd_sc_hd__decap_6
XFILLER_101_447 VGND VGND VPWR VPWR sky130_fd_sc_hd__fill_1
XFILLER_5_1817 VGND VGND VPWR VPWR sky130_fd_sc_hd__decap_12
XFILLER_132_1141 VGND VGND VPWR VPWR sky130_fd_sc_hd__decap_6
XFILLER_74_309 VGND VGND VPWR VPWR sky130_fd_sc_hd__decap_12
XFILLER_80_1073 VGND VGND VPWR VPWR sky130_fd_sc_hd__decap_12
XFILLER_67_361 VGND VGND VPWR VPWR sky130_fd_sc_hd__decap_12
XFILLER_110_981 VGND VGND VPWR VPWR sky130_fd_sc_hd__decap_12
XFILLER_83_821 VGND VGND VPWR VPWR sky130_fd_sc_hd__decap_12
XFILLER_28_737 VGND VGND VPWR VPWR sky130_fd_sc_hd__decap_12
XFILLER_41_1057 VGND VGND VPWR VPWR sky130_fd_sc_hd__decap_6
XFILLER_132_1185 VGND VGND VPWR VPWR sky130_fd_sc_hd__decap_12
XFILLER_27_225 VGND VGND VPWR VPWR sky130_fd_sc_hd__decap_12
XFILLER_83_865 VGND VGND VPWR VPWR sky130_fd_sc_hd__decap_12
XFILLER_103_57 VGND VGND VPWR VPWR sky130_fd_sc_hd__decap_12
XFILLER_58_1521 VGND VGND VPWR VPWR sky130_fd_sc_hd__decap_12
XFILLER_93_1401 VGND VGND VPWR VPWR sky130_fd_sc_hd__decap_12
XTAP_1107 VGND VPWR sky130_fd_sc_hd__tapvpwrvgnd_1
XFILLER_43_729 VGND VGND VPWR VPWR sky130_fd_sc_hd__decap_12
XFILLER_110_1483 VGND VGND VPWR VPWR sky130_fd_sc_hd__fill_1
XTAP_1118 VGND VPWR sky130_fd_sc_hd__tapvpwrvgnd_1
XFILLER_97_1581 VGND VGND VPWR VPWR sky130_fd_sc_hd__decap_12
XTAP_1129 VGND VPWR sky130_fd_sc_hd__tapvpwrvgnd_1
XFILLER_36_781 VGND VGND VPWR VPWR sky130_fd_sc_hd__decap_12
XFILLER_63_39 VGND VGND VPWR VPWR sky130_fd_sc_hd__decap_12
XFILLER_19_1505 VGND VGND VPWR VPWR sky130_fd_sc_hd__decap_6
XFILLER_145_1513 VGND VGND VPWR VPWR sky130_fd_sc_hd__decap_12
XFILLER_58_1565 VGND VGND VPWR VPWR sky130_fd_sc_hd__decap_12
XFILLER_196_701 VGND VGND VPWR VPWR sky130_fd_sc_hd__decap_12
XFILLER_179_39 VGND VGND VPWR VPWR sky130_fd_sc_hd__decap_12
XFILLER_149_1693 VGND VGND VPWR VPWR sky130_fd_sc_hd__decap_12
XFILLER_184_1595 VGND VGND VPWR VPWR sky130_fd_sc_hd__fill_1
XFILLER_19_1549 VGND VGND VPWR VPWR sky130_fd_sc_hd__decap_12
XFILLER_54_1429 VGND VGND VPWR VPWR sky130_fd_sc_hd__decap_12
XFILLER_11_615 VGND VGND VPWR VPWR sky130_fd_sc_hd__fill_1
XFILLER_23_497 VGND VGND VPWR VPWR sky130_fd_sc_hd__decap_6
XFILLER_168_469 VGND VGND VPWR VPWR sky130_fd_sc_hd__decap_6
XFILLER_183_417 VGND VGND VPWR VPWR sky130_fd_sc_hd__decap_12
XFILLER_109_503 VGND VGND VPWR VPWR sky130_fd_sc_hd__fill_1
XFILLER_143_1281 VGND VGND VPWR VPWR sky130_fd_sc_hd__decap_6
XFILLER_195_27 VGND VGND VPWR VPWR sky130_fd_sc_hd__decap_12
XFILLER_52_1197 VGND VGND VPWR VPWR sky130_fd_sc_hd__decap_6
XFILLER_136_333 VGND VGND VPWR VPWR sky130_fd_sc_hd__decap_12
XFILLER_12_65 VGND VGND VPWR VPWR sky130_fd_sc_hd__decap_12
XFILLER_192_973 VGND VGND VPWR VPWR sky130_fd_sc_hd__decap_6
XFILLER_100_1129 VGND VGND VPWR VPWR sky130_fd_sc_hd__decap_12
XFILLER_137_889 VGND VGND VPWR VPWR sky130_fd_sc_hd__decap_6
XFILLER_191_461 VGND VGND VPWR VPWR sky130_fd_sc_hd__decap_12
XFILLER_136_377 VGND VGND VPWR VPWR sky130_fd_sc_hd__decap_12
XFILLER_128_65 VGND VGND VPWR VPWR sky130_fd_sc_hd__decap_12
XFILLER_152_837 VGND VGND VPWR VPWR sky130_fd_sc_hd__decap_12
XFILLER_69_1661 VGND VGND VPWR VPWR sky130_fd_sc_hd__decap_12
XFILLER_191_1511 VGND VGND VPWR VPWR sky130_fd_sc_hd__fill_1
XFILLER_65_1525 VGND VGND VPWR VPWR sky130_fd_sc_hd__decap_12
XFILLER_156_1653 VGND VGND VPWR VPWR sky130_fd_sc_hd__decap_12
XFILLER_105_753 VGND VGND VPWR VPWR sky130_fd_sc_hd__decap_12
XFILLER_2_357 VGND VGND VPWR VPWR sky130_fd_sc_hd__decap_6
XFILLER_120_701 VGND VGND VPWR VPWR sky130_fd_sc_hd__decap_12
XFILLER_26_1509 VGND VGND VPWR VPWR sky130_fd_sc_hd__decap_12
XFILLER_160_881 VGND VGND VPWR VPWR sky130_fd_sc_hd__decap_12
XFILLER_137_1063 VGND VGND VPWR VPWR sky130_fd_sc_hd__fill_1
XFILLER_117_1637 VGND VGND VPWR VPWR sky130_fd_sc_hd__decap_12
XFILLER_65_1569 VGND VGND VPWR VPWR sky130_fd_sc_hd__decap_12
XFILLER_105_797 VGND VGND VPWR VPWR sky130_fd_sc_hd__decap_12
XFILLER_78_637 VGND VGND VPWR VPWR sky130_fd_sc_hd__decap_6
XFILLER_152_1539 VGND VGND VPWR VPWR sky130_fd_sc_hd__fill_1
XFILLER_144_53 VGND VGND VPWR VPWR sky130_fd_sc_hd__decap_12
XFILLER_77_125 VGND VGND VPWR VPWR sky130_fd_sc_hd__decap_12
XFILLER_8_1441 VGND VGND VPWR VPWR sky130_fd_sc_hd__decap_12
XFILLER_144_97 VGND VGND VPWR VPWR sky130_fd_sc_hd__decap_12
XFILLER_150_1241 VGND VGND VPWR VPWR sky130_fd_sc_hd__decap_12
XFILLER_77_169 VGND VGND VPWR VPWR sky130_fd_sc_hd__decap_12
XFILLER_8_1485 VGND VGND VPWR VPWR sky130_fd_sc_hd__decap_12
XFILLER_46_501 VGND VGND VPWR VPWR sky130_fd_sc_hd__decap_12
XFILLER_93_629 VGND VGND VPWR VPWR sky130_fd_sc_hd__decap_12
XFILLER_59_895 VGND VGND VPWR VPWR sky130_fd_sc_hd__fill_1
XTAP_3010 VGND VPWR sky130_fd_sc_hd__tapvpwrvgnd_1
XFILLER_86_681 VGND VGND VPWR VPWR sky130_fd_sc_hd__decap_12
XFILLER_111_1225 VGND VGND VPWR VPWR sky130_fd_sc_hd__decap_6
XFILLER_150_1285 VGND VGND VPWR VPWR sky130_fd_sc_hd__decap_12
XFILLER_37_51 VGND VGND VPWR VPWR sky130_fd_sc_hd__decap_4
XTAP_3021 VGND VPWR sky130_fd_sc_hd__tapvpwrvgnd_1
XFILLER_92_139 VGND VGND VPWR VPWR sky130_fd_sc_hd__fill_1
XFILLER_46_545 VGND VGND VPWR VPWR sky130_fd_sc_hd__decap_12
XTAP_3032 VGND VPWR sky130_fd_sc_hd__tapvpwrvgnd_1
XFILLER_160_41 VGND VGND VPWR VPWR sky130_fd_sc_hd__decap_12
XTAP_3043 VGND VPWR sky130_fd_sc_hd__tapvpwrvgnd_1
XTAP_3054 VGND VPWR sky130_fd_sc_hd__tapvpwrvgnd_1
XFILLER_111_1269 VGND VGND VPWR VPWR sky130_fd_sc_hd__decap_12
XTAP_2320 VGND VPWR sky130_fd_sc_hd__tapvpwrvgnd_1
XFILLER_185_1337 VGND VGND VPWR VPWR sky130_fd_sc_hd__decap_6
XTAP_3065 VGND VPWR sky130_fd_sc_hd__tapvpwrvgnd_1
XFILLER_209_1009 VGND VGND VPWR VPWR sky130_fd_sc_hd__decap_12
XFILLER_46_589 VGND VGND VPWR VPWR sky130_fd_sc_hd__decap_12
XTAP_2331 VGND VPWR sky130_fd_sc_hd__tapvpwrvgnd_1
XFILLER_76_1621 VGND VGND VPWR VPWR sky130_fd_sc_hd__decap_12
XTAP_3076 VGND VPWR sky130_fd_sc_hd__tapvpwrvgnd_1
XFILLER_160_85 VGND VGND VPWR VPWR sky130_fd_sc_hd__decap_12
XFILLER_2_1073 VGND VGND VPWR VPWR sky130_fd_sc_hd__decap_12
XFILLER_33_217 VGND VGND VPWR VPWR sky130_fd_sc_hd__decap_6
XTAP_2342 VGND VPWR sky130_fd_sc_hd__tapvpwrvgnd_1
XTAP_3087 VGND VPWR sky130_fd_sc_hd__tapvpwrvgnd_1
XFILLER_15_921 VGND VGND VPWR VPWR sky130_fd_sc_hd__decap_12
XTAP_2353 VGND VPWR sky130_fd_sc_hd__tapvpwrvgnd_1
XTAP_3098 VGND VPWR sky130_fd_sc_hd__tapvpwrvgnd_1
XTAP_2364 VGND VPWR sky130_fd_sc_hd__tapvpwrvgnd_1
XTAP_1630 VGND VPWR sky130_fd_sc_hd__tapvpwrvgnd_1
XFILLER_37_1605 VGND VGND VPWR VPWR sky130_fd_sc_hd__decap_12
XTAP_2375 VGND VPWR sky130_fd_sc_hd__tapvpwrvgnd_1
XFILLER_128_1733 VGND VGND VPWR VPWR sky130_fd_sc_hd__decap_12
XTAP_1641 VGND VPWR sky130_fd_sc_hd__tapvpwrvgnd_1
XFILLER_61_559 VGND VGND VPWR VPWR sky130_fd_sc_hd__fill_1
XFILLER_76_1665 VGND VGND VPWR VPWR sky130_fd_sc_hd__decap_12
XFILLER_96_1091 VGND VGND VPWR VPWR sky130_fd_sc_hd__fill_1
XFILLER_199_561 VGND VGND VPWR VPWR sky130_fd_sc_hd__decap_12
XFILLER_167_1793 VGND VGND VPWR VPWR sky130_fd_sc_hd__decap_12
XFILLER_109_1121 VGND VGND VPWR VPWR sky130_fd_sc_hd__decap_12
XTAP_2386 VGND VPWR sky130_fd_sc_hd__tapvpwrvgnd_1
XFILLER_15_965 VGND VGND VPWR VPWR sky130_fd_sc_hd__decap_12
XTAP_1652 VGND VPWR sky130_fd_sc_hd__tapvpwrvgnd_1
XTAP_2397 VGND VPWR sky130_fd_sc_hd__tapvpwrvgnd_1
XTAP_1663 VGND VPWR sky130_fd_sc_hd__tapvpwrvgnd_1
XTAP_1674 VGND VPWR sky130_fd_sc_hd__tapvpwrvgnd_1
XFILLER_37_1649 VGND VGND VPWR VPWR sky130_fd_sc_hd__decap_12
XFILLER_128_1777 VGND VGND VPWR VPWR sky130_fd_sc_hd__decap_12
XFILLER_18_1037 VGND VGND VPWR VPWR sky130_fd_sc_hd__decap_12
XTAP_1685 VGND VPWR sky130_fd_sc_hd__tapvpwrvgnd_1
XFILLER_159_447 VGND VGND VPWR VPWR sky130_fd_sc_hd__fill_1
XFILLER_14_475 VGND VGND VPWR VPWR sky130_fd_sc_hd__fill_1
XTAP_1696 VGND VPWR sky130_fd_sc_hd__tapvpwrvgnd_1
XFILLER_41_261 VGND VGND VPWR VPWR sky130_fd_sc_hd__decap_12
XFILLER_186_233 VGND VGND VPWR VPWR sky130_fd_sc_hd__decap_12
XFILLER_163_1679 VGND VGND VPWR VPWR sky130_fd_sc_hd__fill_1
XFILLER_105_1007 VGND VGND VPWR VPWR sky130_fd_sc_hd__fill_1
XFILLER_15_1903 VGND VGND VPWR VPWR sky130_fd_sc_hd__fill_1
XFILLER_204_1621 VGND VGND VPWR VPWR sky130_fd_sc_hd__decap_12
XFILLER_147_609 VGND VGND VPWR VPWR sky130_fd_sc_hd__decap_6
XFILLER_202_587 VGND VGND VPWR VPWR sky130_fd_sc_hd__fill_1
XFILLER_198_1709 VGND VGND VPWR VPWR sky130_fd_sc_hd__decap_12
XFILLER_30_979 VGND VGND VPWR VPWR sky130_fd_sc_hd__fill_1
XFILLER_186_277 VGND VGND VPWR VPWR sky130_fd_sc_hd__decap_12
XFILLER_168_981 VGND VGND VPWR VPWR sky130_fd_sc_hd__decap_12
XFILLER_70_1253 VGND VGND VPWR VPWR sky130_fd_sc_hd__decap_6
XFILLER_204_1665 VGND VGND VPWR VPWR sky130_fd_sc_hd__decap_12
XFILLER_161_1381 VGND VGND VPWR VPWR sky130_fd_sc_hd__decap_12
XFILLER_179_1119 VGND VGND VPWR VPWR sky130_fd_sc_hd__fill_1
XFILLER_183_951 VGND VGND VPWR VPWR sky130_fd_sc_hd__fill_1
XFILLER_139_193 VGND VGND VPWR VPWR sky130_fd_sc_hd__decap_12
XFILLER_122_1365 VGND VGND VPWR VPWR sky130_fd_sc_hd__decap_6
XFILLER_10_681 VGND VGND VPWR VPWR sky130_fd_sc_hd__decap_12
XFILLER_70_1297 VGND VGND VPWR VPWR sky130_fd_sc_hd__decap_12
XFILLER_155_653 VGND VGND VPWR VPWR sky130_fd_sc_hd__decap_12
XFILLER_128_867 VGND VGND VPWR VPWR sky130_fd_sc_hd__fill_1
XFILLER_154_141 VGND VGND VPWR VPWR sky130_fd_sc_hd__decap_12
XFILLER_170_601 VGND VGND VPWR VPWR sky130_fd_sc_hd__decap_12
XFILLER_115_517 VGND VGND VPWR VPWR sky130_fd_sc_hd__decap_12
XFILLER_196_1477 VGND VGND VPWR VPWR sky130_fd_sc_hd__decap_6
XFILLER_155_697 VGND VGND VPWR VPWR sky130_fd_sc_hd__decap_12
XFILLER_13_1693 VGND VGND VPWR VPWR sky130_fd_sc_hd__decap_12
XFILLER_48_1701 VGND VGND VPWR VPWR sky130_fd_sc_hd__decap_6
XFILLER_87_1761 VGND VGND VPWR VPWR sky130_fd_sc_hd__decap_12
XFILLER_185_93 VGND VGND VPWR VPWR sky130_fd_sc_hd__decap_12
XFILLER_170_645 VGND VGND VPWR VPWR sky130_fd_sc_hd__decap_12
XFILLER_48_1745 VGND VGND VPWR VPWR sky130_fd_sc_hd__decap_12
XFILLER_83_1625 VGND VGND VPWR VPWR sky130_fd_sc_hd__decap_12
XFILLER_139_1873 VGND VGND VPWR VPWR sky130_fd_sc_hd__decap_12