*SPEF "IEEE 1481-1998"
*DESIGN "priority_encoder"
*DATE "Fri Aug 13 15:10:39 2021"
*VENDOR "AUC CSCE Department"
*PROGRAM "SPEF Extractor"
*VERSION "1.0"
*DESIGN_FLOW "PIN_CAP NONE"
*DIVIDER /
*DELIMITER :
*BUS_DELIMITER []
*T_UNIT 1.00000 NS
*C_UNIT 1.00000 PF
*R_UNIT 1.00000 OHM
*L_UNIT 1.00000 HENRY


*NAME_MAP
*0 _00_
*1 _01_
*2 _02_
*3 _03_
*4 _04_
*5 _05_
*6 _06_
*7 _07_
*8 _08_
*9 _09_
*10 _10_
*11 en
*12 eno
*13 gs
*14 in[0]
*15 in[1]
*16 in[2]
*17 in[3]
*18 in[4]
*19 in[5]
*20 in[6]
*21 in[7]
*22 net1
*23 net10
*24 net11
*25 net12
*26 net13
*27 net14
*28 net2
*29 net3
*30 net4
*31 net5
*32 net6
*33 net7
*34 net8
*35 net9
*36 out[0]
*37 out[1]
*38 out[2]

*D_NET *0 0.004610231391600001
*CONN
*I _26_:A I
*I _25_:A_N I
*I _21_:B1 I
*I _20_:B1 I
*I _17_:A1 I
*I _11_:X O
*CAP
0 _21_:B1 0.00075201237024
1 *0:2 0.00043120197672
2 _26_:A 0.00044015821855999997
3 *0:3 0.0005582931283199999
4 *0:1 0.0004908255476800001
5 *0:5 0.00038202773824
6 *0:6 4.017137184e-05
7 *0:7 0.00016728583584
8 *0:9 0.00044134782144
9 *0:10 4.017137184e-05
10 *0:11 0.00016728583584
11 *0:12 4.017137184e-05
12 *0:13 5.034052896000001e-05
13 *0:14 9.002024044000002e-05
14 *0:16 8.932229792e-05
15 _20_:B1 5.034052896000001e-05
16 *0:18 0.00014298538739999998
17 *0:20 0.00016728583584
18 _17_:A1 6.898398368e-05
19 _25_:A_N 0
20 *0:4 0
21 _11_:X 0
22 *0:17 0
23 *0:21 0
*RES
0 _21_:B1 *0:1 7.803571428571428
1 *0:2 *0:1 341.59999999999997
2 _26_:A *0:2 4.517857142857142
3 *0:3 _25_:A_N 0.30357142857142855
4 *0:3 *0:4 5.339285714285714
5 *0:1 *0:4 390.3999999999999
6 *0:5 _17_:A1 0.9107142857142857
7 *0:5 *0:6 2.875
8 *0:6 *0:7 0.30357142857142855
9 *0:7 *0:8 1.6428571428571428
10 *0:9 *0:8 0.30357142857142855
11 *0:9 *0:10 4.107142857142857
12 *0:10 *0:11 0.30357142857142855
13 *0:11 *0:12 1.6428571428571428
14 *0:12 _21_:B1 0.30357142857142855
15 *0:13 _11_:X 0.4107142857142857
16 *0:14 *0:15 0.9107142857142857
17 *0:16 *0:5 0.8214285714285714
18 _20_:B1 *0:17 0.4107142857142857
19 *0:18 *0:19 1.5178571428571426
20 *0:20 *0:21 1.6428571428571428
21 _17_:A1 *0:20 0.6071428571428571
22 _21_:B1 _21_:B1 0
23 *0:1 *0:1 0
24 *0:2 *0:2 0
25 _26_:A _26_:A 0
26 _25_:A_N _25_:A_N 0
27 *0:4 *0:4 0
28 _17_:A1 _17_:A1 0
29 _11_:X _11_:X 0
30 *0:13 *0:14 0
31 *0:16 *0:15 0
32 _20_:B1 _20_:B1 0
33 *0:17 *0:19 0
34 *0:21 *0:18 0
*END

*D_NET *1 0.0005096326155999999
*CONN
*I _17_:A2 I
*I _12_:Y O
*CAP
24 *1:1 0.00038132854871999994
25 _17_:A2 0.00012830406688
26 _12_:Y 0
27 *1:3 0
*RES
35 *1:1 *1:2 4.249999999999999
36 _17_:A2 *1:3 1.232142857142857
37 _12_:Y _12_:Y 0
38 _12_:Y *1:1 0
39 *1:3 *1:2 0
40 _17_:A2 _17_:A2 0
*END

*D_NET *2 0.00143393464544
*CONN
*I _19_:B1 I
*I _16_:A1 I
*I _13_:Y O
*CAP
28 _16_:A1 0.0004791399875199999
29 *2:1 6.898398368e-05
30 *2:2 0.00040117644959999997
31 *2:3 5.034052896000001e-05
32 *2:4 0.00043429369568000003
33 _13_:Y 0
34 _19_:B1 0
35 *2:6 0
*RES
41 _16_:A1 *2:1 4.928571428571428
42 *2:1 *2:2 0.6071428571428571
43 *2:2 _13_:Y 4.107142857142857
44 *2:3 _19_:B1 0.4107142857142857
45 *2:4 *2:5 4.857142857142857
46 _16_:A1 _16_:A1 0
47 _13_:Y _13_:Y 0
48 _19_:B1 _19_:B1 0
49 *2:3 *2:5 0
50 *2:6 *2:4 0
*END

*D_NET *3 0.00035484597524
*CONN
*I _15_:A2 I
*I _14_:Y O
*CAP
36 *3:1 0.00035484597524
37 _15_:A2 0
38 _14_:Y 0
*RES
51 *3:1 *3:2 3.946428571428571
52 _15_:A2 _15_:A2 0
53 _15_:A2 *3:1 0
54 _14_:Y _14_:Y 0
55 _14_:Y *3:2 0
*END

*D_NET *4 9.002024044000002e-05
*CONN
*I _16_:A2 I
*I _15_:X O
*CAP
39 *4:1 9.002024044000002e-05
40 _16_:A2 0
41 _15_:X 0
*RES
56 *4:1 *4:2 0.9107142857142857
57 _16_:A2 _16_:A2 0
58 _16_:A2 *4:1 0
59 _15_:X _15_:X 0
60 _15_:X *4:2 0
*END

*D_NET *5 0.00032396002160000004
*CONN
*I _17_:A3 I
*I _16_:X O
*CAP
42 *5:1 0.00011650281392
43 *5:3 0.00020745720768000002
44 _16_:X 0
45 *5:4 0
46 _17_:A3 0
*RES
61 *5:1 *5:2 1.2142857142857142
62 *5:3 *5:4 1.6428571428571428
63 *5:3 _17_:A3 0.30357142857142855
64 _16_:X _16_:X 0
65 _16_:X *5:1 0
66 *5:4 *5:2 0
67 _17_:A3 _17_:A3 0
*END

*D_NET *6 0.00041471733464000006
*CONN
*I _19_:C1 I
*I _18_:Y O
*CAP
47 *6:1 0.00016946796088000002
48 *6:3 0.00024524937376
49 _19_:C1 0
50 _18_:Y 0
*RES
68 *6:1 *6:2 1.8214285714285714
69 *6:3 _18_:Y 2.464285714285714
70 _19_:C1 _19_:C1 0
71 _19_:C1 *6:1 0
72 *6:3 *6:2 0
73 _18_:Y _18_:Y 0
*END

*D_NET *7 0.0004311786643199999
*CONN
*I _20_:A3 I
*I _19_:X O
*CAP
51 *7:1 0.0004311786643199999
52 _20_:A3 0
53 _19_:X 0
*RES
74 *7:1 _20_:A3 0.6071428571428571
75 *7:1 _19_:X 3.6964285714285707
76 _20_:A3 _20_:A3 0
77 _19_:X _19_:X 0
*END

*D_NET *8 0.00094174418624
*CONN
*I _24_:C I
*I _22_:X O
*CAP
54 _22_:X 0.00012830406688
55 *8:2 0.00064615428352
56 *8:4 0.00016728583584
57 *8:1 0
58 _24_:C 0
*RES
78 _22_:X *8:1 1.232142857142857
79 *8:2 *8:3 7.285714285714286
80 *8:4 _24_:C 1.6428571428571428
81 _22_:X _22_:X 0
82 *8:1 *8:2 0
83 *8:4 *8:3 0
84 _24_:C _24_:C 0
*END

*D_NET *9 0.0005596785649200001
*CONN
*I _24_:D I
*I _23_:X O
*CAP
59 _23_:X 8.932229792e-05
60 *9:2 0.00030188082828000006
61 *9:4 0.00016847543872000001
62 *9:1 0
63 *9:5 0
64 _24_:D 0
*RES
85 _23_:X *9:1 0.8214285714285714
86 *9:2 *9:3 3.339285714285714
87 *9:4 *9:5 1.232142857142857
88 *9:4 _24_:D 0.30357142857142855
89 _23_:X _23_:X 0
90 *9:1 *9:2 0
91 *9:5 *9:3 0
92 _24_:D _24_:D 0
*END

*D_NET *10 0.0009108616968800001
*CONN
*I _26_:B I
*I _25_:B I
*I _24_:X O
*CAP
65 *10:1 0.0005402239896
66 _25_:B 1.1782474880000001e-05
67 *10:3 5.029638022e-05
68 *10:5 4.640188412000001e-05
69 *10:2 0.00026215696806
70 _24_:X 0
71 _26_:B 0
*RES
93 *10:1 *10:2 6.07142857142857
94 _25_:B _25_:B 0.004464285714285714
95 *10:3 *10:4 0.45535714285714285
96 *10:5 *10:3 0.4107142857142857
97 *10:2 *10:5 2.883928571428571
98 _24_:X _24_:X 0
99 _24_:X *10:2 0
100 _26_:B _26_:B 0
101 _26_:B *10:1 0
102 _25_:B _25_:B 0
103 _25_:B *10:4 0
*END

*D_NET *11 0.00070973609922
*CONN
*P en I
*I input1:A I
*CAP
72 *11:1 0.00065939557026
73 *11:3 5.034052896000001e-05
74 input1:A 0
*RES
104 *11:1 *11:2 7.437499999999999
105 *11:3 input1:A 0.4107142857142857
106 *11:3 *11:2 0
107 input1:A input1:A 0
*END

*D_NET *12 0.0006965236396399999
*CONN
*P eno O
*I output10:X O
*CAP
75 output10:X 0.00012830406688
76 *12:2 0.00012974410066
77 *12:4 0.00043847547209999995
78 *12:1 0
*RES
108 output10:X *12:1 1.232142857142857
109 *12:2 *12:3 1.3660714285714284
110 *12:4 *12:5 0.7567
111 output10:X output10:X 0
112 *12:1 *12:3 0
113 *12:2 *12:4 0
*END

*D_NET *13 0.0011120529842999999
*CONN
*P gs O
*I output11:X O
*CAP
79 *13:1 0.00063291299678
80 output11:X 0.0004791399875199999
81 *13:3 0
*RES
114 *13:1 *13:2 7.133928571428571
115 output11:X *13:3 4.928571428571428
116 *13:3 *13:2 0
117 output11:X output11:X 0
*END

*D_NET *14 0.00046290231888
*CONN
*P in[0] I
*I input2:A I
*CAP
82 *14:1 0.0003596407917
83 *14:3 0.00010326152718000001
84 input2:A 0
*RES
118 *14:1 *14:2 0.6125666666666667
119 *14:3 *14:4 1.0624999999999998
120 *14:3 *14:2 0
121 input2:A input2:A 0
122 input2:A *14:4 0
*END

*D_NET *15 0.0005688326128
*CONN
*P in[1] I
*I input3:A I
*CAP
85 *15:1 0.0003596407917
86 *15:3 0.00020919182110000001
87 input3:A 0
*RES
123 *15:1 *15:2 0.6125666666666667
124 *15:3 *15:4 2.276785714285714
125 *15:3 *15:2 0
126 input3:A input3:A 0
127 input3:A *15:4 0
*END

*D_NET *16 0.00125548086466
*CONN
*P in[2] I
*I input4:A I
*CAP
88 *16:1 0.00065939557026
89 *16:3 0.0005960852944
90 input4:A 0
*RES
128 *16:1 *16:2 7.437499999999999
129 *16:3 input4:A 6.160714285714286
130 *16:3 *16:2 0
131 input4:A input4:A 0
*END

*D_NET *17 0.00107900794542
*CONN
*P in[3] I
*I input5:A I
*CAP
91 *17:1 0.00012830406688
92 *17:2 0.0009507038785400001
93 input5:A 0
*RES
132 *17:1 input5:A 1.232142857142857
133 *17:2 *17:3 10.776785714285714
134 input5:A input5:A 0
135 *17:1 *17:2 0
*END

*D_NET *18 0.0009488501789599999
*CONN
*P in[4] I
*I input6:A I
*CAP
94 input6:A 8.932229792e-05
95 *18:2 0.00042105240893999997
96 *18:4 0.00043847547209999995
97 *18:1 0
*RES
136 input6:A *18:1 0.8214285714285714
137 *18:2 *18:3 4.705357142857142
138 *18:4 *18:5 0.7567
139 input6:A input6:A 0
140 *18:1 *18:3 0
141 *18:2 *18:4 0
*END

*D_NET *19 0.0009334685523399999
*CONN
*P in[5] I
*I input7:A I
*CAP
98 *19:1 0.00012830406688
99 *19:2 0.00034160468850000003
100 *19:3 8.223124824000001e-05
101 *19:4 0.00038132854871999994
102 input7:A 0
*RES
142 *19:1 input7:A 1.232142857142857
143 *19:2 *19:3 3.7946428571428568
144 *19:3 *19:4 0.8214285714285714
145 *19:4 *19:5 4.249999999999999
146 input7:A input7:A 0
147 *19:1 *19:2 0
*END

*D_NET *20 0.0017509342685400003
*CONN
*P in[6] I
*I input8:A I
*CAP
103 input8:A 4.017137184e-05
104 *20:1 0.0010248847529600001
105 *20:3 0.0006858781437400002
106 *20:2 0
*RES
148 input8:A *20:1 0.30357142857142855
149 *20:1 *20:2 10.678571428571429
150 *20:3 *20:4 7.741071428571428
151 input8:A input8:A 0
152 *20:2 *20:3 0
*END

*D_NET *21 0.00091948517434
*CONN
*P in[7] I
*I input9:A I
*CAP
107 *21:1 0.00022243310784000002
108 *21:3 0.00052976623066
109 *21:5 0.00016728583584
110 input9:A 0
*RES
153 *21:1 *21:2 2.4285714285714284
154 *21:3 *21:2 0.8214285714285714
155 *21:3 *21:4 5.008928571428571
156 *21:5 input9:A 1.6428571428571428
157 *21:5 *21:4 0
158 input9:A input9:A 0
*END

*D_NET *22 0.0012907248411600002
*CONN
*I input1:X O
*I _11_:A I
*I _17_:B1 I
*CAP
111 _11_:A 0.0002062676048
112 *22:2 0.00077856715092
113 *22:4 0.00025559370522000005
114 *22:3 5.029638022e-05
115 *22:1 0
116 input1:X 0
117 _17_:B1 0
*RES
159 _11_:A *22:1 2.0535714285714284
160 *22:2 *22:3 8.803571428571427
161 *22:4 *22:5 2.276785714285714
162 *22:4 *22:6 0.4107142857142857
163 *22:3 *22:6 0.45535714285714285
164 _11_:A _11_:A 0
165 *22:1 *22:3 0
166 input1:X input1:X 0
167 input1:X *22:2 0
168 _17_:B1 _17_:B1 0
169 _17_:B1 *22:5 0
*END

*D_NET *23 0.0009836943202400001
*CONN
*I output10:A I
*I _25_:Y O
*CAP
118 *23:1 0.00012830406688
119 *23:2 5.034052896000001e-05
120 *23:3 0.0008050497244000001
121 _25_:Y 0
122 output10:A 0
*RES
170 *23:1 _25_:Y 1.232142857142857
171 *23:2 output10:A 0.4107142857142857
172 *23:3 *23:4 9.107142857142856
173 *23:1 *23:3 0
174 _25_:Y _25_:Y 0
175 *23:2 *23:4 0
176 output10:A output10:A 0
*END

*D_NET *24 0.0007718337324
*CONN
*I output11:A I
*I _26_:X O
*CAP
123 *24:1 5.034052896000001e-05
124 *24:2 0.00059318913656
125 *24:4 0.00012830406688
126 output11:A 0
127 _26_:X 0
*RES
177 *24:1 output11:A 0.4107142857142857
178 *24:2 *24:3 6.678571428571428
179 *24:4 _26_:X 1.232142857142857
180 output11:A output11:A 0
181 *24:1 *24:2 0
182 *24:4 *24:3 0
183 _26_:X _26_:X 0
*END

*D_NET *25 0.0013294519580000002
*CONN
*I output12:A I
*I _17_:X O
*CAP
128 *25:1 5.034052896000001e-05
129 *25:2 5.034052896000001e-05
130 *25:3 0.0012287709000800002
131 _17_:X 0
132 output12:A 0
*RES
184 *25:1 _17_:X 0.4107142857142857
185 *25:2 output12:A 0.4107142857142857
186 *25:3 *25:4 13.964285714285714
187 _17_:X _17_:X 0
188 *25:1 *25:3 0
189 *25:2 *25:4 0
190 output12:A output12:A 0
*END

*D_NET *26 0.00075208457744
*CONN
*I output13:A I
*I _20_:X O
*CAP
133 *26:1 0.00075208457744
134 _20_:X 0
135 output13:A 0
*RES
191 *26:1 *26:2 8.499999999999998
192 _20_:X _20_:X 0
193 _20_:X *26:1 0
194 output13:A output13:A 0
195 output13:A *26:2 0
*END

*D_NET *27 0.00024524937376
*CONN
*I output14:A I
*I _21_:X O
*CAP
136 _21_:X 0.00024524937376
137 output14:A 0
*RES
196 _21_:X output14:A 2.464285714285714
197 output14:A output14:A 0
198 _21_:X _21_:X 0
*END

*D_NET *28 0.0014871452046399999
*CONN
*I input2:X O
*I _23_:D I
*CAP
138 input2:X 0.0009469212150399999
139 *28:2 0.0005402239896
140 *28:1 0
141 _23_:D 0
*RES
199 input2:X *28:1 9.857142857142856
200 *28:2 *28:3 6.07142857142857
201 input2:X input2:X 0
202 *28:1 *28:2 0
203 _23_:D _23_:D 0
204 _23_:D *28:3 0
*END

*D_NET *29 0.0020565996011200002
*CONN
*I input3:X O
*I _15_:A1 I
*I _22_:A I
*CAP
142 _15_:A1 5.034052896000001e-05
143 *29:2 0.00024891568132000004
144 *29:4 0.00016728583584
145 *29:6 0.00011650281392
146 input3:X 0.00055710352544
147 _22_:A 8.932229792e-05
148 *29:9 4.017137184e-05
149 *29:11 0.00061967171004
150 *29:5 0.00016728583584
151 *29:1 0
152 *29:8 0
153 *29:10 0
154 *29:13 0
*RES
205 _15_:A1 *29:1 0.4107142857142857
206 *29:2 *29:3 2.7321428571428568
207 *29:4 *29:5 1.6428571428571428
208 *29:6 *29:7 1.2142857142857142
209 input3:X *29:8 5.75
210 _22_:A *29:9 0.8214285714285714
211 *29:9 *29:10 0.30357142857142855
212 *29:11 *29:12 6.982142857142857
213 *29:5 *29:13 1.6428571428571428
214 _15_:A1 _15_:A1 0
215 *29:1 *29:2 0
216 *29:5 *29:3 0
217 *29:4 *29:6 0
218 *29:8 *29:7 0
219 input3:X input3:X 0
220 _22_:A _22_:A 0
221 *29:10 *29:11 0
222 *29:13 *29:12 0
*END

*D_NET *30 0.0027104798637600006
*CONN
*I input4:X O
*I _14_:A I
*I _19_:A1 I
*I _22_:B I
*CAP
155 *30:1 0.00012949366976
156 *30:3 0.00064615428352
157 input4:X 0.00063506706336
158 *30:6 0.00016847543872000001
159 *30:8 4.017137184e-05
160 *30:9 0.00018270924762000003
161 *30:11 4.640188412000001e-05
162 *30:4 0.00036808726198
163 *30:12 0.00016728583584
164 *30:13 0.00019595053436
165 *30:15 9.051190080000001e-05
166 _19_:A1 4.017137184e-05
167 _22_:B 0
168 *30:2 0
169 *30:5 0
170 _14_:A 0
171 *30:16 0
*RES
223 *30:1 _22_:B 0.8214285714285714
224 *30:1 *30:2 0.30357142857142855
225 *30:3 *30:4 7.285714285714286
226 input4:X *30:5 6.571428571428571
227 *30:6 _19_:A1 0.30357142857142855
228 *30:6 *30:7 1.232142857142857
229 *30:8 *30:7 0.30357142857142855
230 *30:9 *30:10 1.9732142857142856
231 *30:11 *30:9 0.4107142857142857
232 *30:4 *30:11 4.098214285714286
233 *30:12 _14_:A 1.6428571428571428
234 *30:13 *30:14 2.1249999999999996
235 *30:15 *30:16 0.30357142857142855
236 *30:15 *30:17 0.4107142857142857
237 _19_:A1 *30:17 0.30357142857142855
238 _22_:B _22_:B 0
239 *30:2 *30:4 0
240 *30:5 *30:3 0
241 input4:X input4:X 0
242 _19_:A1 _19_:A1 0
243 *30:8 *30:10 0
244 _14_:A _14_:A 0
245 *30:12 *30:14 0
246 *30:16 *30:13 0
*END

*D_NET *31 0.0028970958125200006
*CONN
*I input5:X O
*I _15_:B1 I
*I _19_:A2 I
*I _23_:A I
*CAP
172 *31:1 6.898398368e-05
173 *31:2 0.00016728583584
174 *31:3 0.0009374625918000002
175 *31:5 0.00040117644959999997
176 *31:7 0.00030188082828000006
177 *31:9 0.0003621946806399999
178 *31:10 7.021569086000002e-05
179 *31:8 0.00018270924762000003
180 *31:13 5.034052896000001e-05
181 *31:14 0.00035484597524
182 _23_:A 0
183 *31:6 0
184 _15_:B1 0
185 _19_:A2 0
186 input5:X 0
*RES
247 *31:1 _23_:A 0.6071428571428571
248 *31:2 *31:1 1.6428571428571428
249 *31:3 *31:4 10.625
250 *31:5 *31:6 4.107142857142857
251 *31:7 *31:8 3.339285714285714
252 *31:9 *31:2 3.6964285714285707
253 *31:10 *31:11 0.15178571428571427
254 *31:10 *31:12 0.4107142857142857
255 *31:8 *31:12 1.9732142857142856
256 *31:13 input5:X 0.4107142857142857
257 *31:14 *31:15 3.946428571428571
258 _23_:A _23_:A 0
259 *31:2 *31:3 0
260 *31:5 *31:4 0
261 *31:6 *31:14 0
262 _15_:B1 _15_:B1 0
263 _15_:B1 *31:8 0
264 *31:9 *31:7 0
265 _19_:A2 _19_:A2 0
266 _19_:A2 *31:11 0
267 *31:13 *31:15 0
268 input5:X input5:X 0
*END

*D_NET *32 0.00171575924624
*CONN
*I input6:X O
*I _13_:A I
*I _21_:A3 I
*I _24_:A I
*CAP
187 *32:1 0.00023567439458000006
188 *32:3 4.640188412000001e-05
189 *32:4 0.00034160468850000003
190 *32:5 8.932229792e-05
191 _24_:A 0.00012830406688
192 *32:2 0.00043429369568000003
193 _21_:A3 0.00044015821855999997
194 _13_:A 0
195 input6:X 0
196 *32:6 0
197 *32:8 0
*RES
269 *32:1 *32:2 2.580357142857143
270 *32:3 *32:1 0.4107142857142857
271 *32:4 *32:3 3.7946428571428568
272 *32:5 input6:X 0.8214285714285714
273 _24_:A *32:6 1.232142857142857
274 *32:2 *32:7 4.857142857142857
275 _21_:A3 *32:8 4.517857142857142
276 _13_:A _13_:A 0
277 _13_:A *32:2 0
278 *32:5 *32:4 0
279 input6:X input6:X 0
280 _24_:A _24_:A 0
281 *32:6 *32:7 0
282 _21_:A3 _21_:A3 0
283 *32:8 *32:9 0
*END

*D_NET *33 0.0025655690094399997
*CONN
*I input7:X O
*I _16_:B1 I
*I _18_:A I
*I _21_:A4 I
*I _23_:B I
*CAP
198 _21_:A4 8.932229792e-05
199 *33:2 0.00043429369568000003
200 *33:4 0.00016946796088000002
201 _16_:B1 4.017137184e-05
202 *33:5 0.00055710352544
203 *33:6 6.898398368e-05
204 input7:X 0.00040117644959999997
205 *33:3 0.0008050497244000001
206 _18_:A 0
207 *33:1 0
208 _23_:B 0
209 *33:7 0
*RES
284 _21_:A4 *33:1 0.8214285714285714
285 *33:2 *33:3 4.857142857142857
286 *33:4 *33:2 1.8214285714285714
287 _16_:B1 *33:5 0.30357142857142855
288 *33:5 *33:6 5.75
289 *33:6 _23_:B 0.6071428571428571
290 input7:X *33:7 4.107142857142857
291 *33:3 *33:8 9.107142857142856
292 _18_:A _18_:A 0
293 _18_:A *33:3 0
294 _21_:A4 _21_:A4 0
295 *33:1 *33:2 0
296 _23_:B _23_:B 0
297 _23_:B *33:4 0
298 _16_:B1 _16_:B1 0
299 *33:7 *33:8 0
300 input7:X input7:X 0
*END

*D_NET *34 0.0037641679886800004
*CONN
*I input8:X O
*I _12_:A I
*I _20_:A1 I
*I _21_:A1 I
*I _24_:B I
*CAP
210 _20_:A1 4.017137184e-05
211 *34:1 5.034052896000001e-05
212 *34:3 0.0006726368570000002
213 *34:5 8.932229792e-05
214 *34:6 0.0003532151264
215 *34:8 0.00055710352544
216 *34:9 0.00090793944608
217 *34:2 4.017137184e-05
218 *34:10 8.932229792e-05
219 *34:11 0.0009639451652800001
220 _12_:A 0
221 _21_:A1 0
222 _24_:B 0
223 *34:14 0
224 input8:X 0
*RES
301 _20_:A1 *34:1 0.30357142857142855
302 *34:1 *34:2 0.4107142857142857
303 *34:3 *34:4 7.5892857142857135
304 *34:5 _12_:A 0.8214285714285714
305 *34:6 _21_:A1 2.875
306 *34:6 *34:7 0.6071428571428571
307 *34:8 *34:7 5.75
308 *34:9 _24_:B 9.446428571428571
309 *34:2 *34:9 0.30357142857142855
310 *34:10 input8:X 0.8214285714285714
311 *34:11 *34:12 10.928571428571427
312 _20_:A1 _20_:A1 0
313 *34:2 *34:4 0
314 *34:5 *34:3 0
315 _12_:A _12_:A 0
316 _21_:A1 _21_:A1 0
317 *34:8 *34:13 0
318 _24_:B _24_:B 0
319 *34:14 *34:11 0
320 *34:10 *34:12 0
321 input8:X input8:X 0
*END

*D_NET *35 0.00308950366584
*CONN
*I input9:X O
*I _17_:B2 I
*I _20_:A2 I
*I _21_:A2 I
*I _23_:C I
*CAP
225 _23_:C 0.0002062676048
226 *35:2 0.0008050497244000001
227 input9:X 0.00016728583584
228 _21_:A2 0.00028423114272
229 *35:6 0.00026215696806
230 *35:8 4.640188412000001e-05
231 *35:3 2.3813806740000006e-05
232 _17_:B2 0.00016728583584
233 *35:10 9.002024044000002e-05
234 *35:12 0.00063506706336
235 *35:13 0.0002854207456
236 *35:11 0.00011650281392
237 *35:1 0
238 *35:4 0
239 *35:5 0
240 *35:9 0
241 _20_:A2 0
242 *35:14 0
*RES
322 _23_:C *35:1 2.0535714285714284
323 *35:2 *35:3 9.107142857142856
324 input9:X *35:4 1.6428571428571428
325 _21_:A2 *35:5 2.875
326 *35:6 *35:7 2.883928571428571
327 *35:8 *35:6 0.4107142857142857
328 *35:3 *35:8 0.15178571428571427
329 _17_:B2 *35:9 1.6428571428571428
330 *35:10 *35:11 0.9107142857142857
331 *35:12 _21_:A2 6.571428571428571
332 *35:13 _20_:A2 0.30357142857142855
333 *35:13 *35:14 2.464285714285714
334 *35:11 *35:15 1.2142857142857142
335 _23_:C _23_:C 0
336 *35:1 *35:3 0
337 *35:4 *35:2 0
338 input9:X input9:X 0
339 _21_:A2 _21_:A2 0
340 *35:5 *35:7 0
341 _17_:B2 _17_:B2 0
342 *35:9 *35:10 0
343 *35:12 *35:11 0
344 _20_:A2 _20_:A2 0
345 *35:14 *35:15 0
*END

*D_NET *36 0.00047583708559999997
*CONN
*P out[0] O
*I output12:X O
*CAP
243 *36:1 7.67789537e-05
244 *36:3 0.00039905813189999997
245 output12:X 0
246 *36:2 0
*RES
346 *36:1 *36:2 0.7589285714285713
347 *36:3 *36:4 0.6846333333333334
348 output12:X output12:X 0
349 output12:X *36:1 0
350 *36:2 *36:4 0
*END

*D_NET *37 0.0012599334122199999
*CONN
*P out[1] O
*I output13:X O
*CAP
247 *37:1 0.0003621946806399999
248 *37:2 0.0008977387315800001
249 output13:X 0
*RES
351 *37:1 output13:X 3.6964285714285707
352 *37:2 *37:3 10.169642857142856
353 output13:X output13:X 0
354 *37:1 *37:2 0
*END

*D_NET *38 0.00057722300776
*CONN
*P out[2] O
*I output14:X O
*CAP
250 output14:X 0.00016728583584
251 *38:2 5.029638022e-05
252 *38:4 0.0003596407917
253 *38:1 0
*RES
355 output14:X *38:1 1.6428571428571428
356 *38:2 *38:3 0.45535714285714285
357 *38:4 *38:5 0.6125666666666667
358 output14:X output14:X 0
359 *38:1 *38:3 0
360 *38:2 *38:4 0
*END

